*Heading
** Job name: Job-3 Model name: CMSG
** Generated by: Abaqus/CAE 6.12-1
*Preprint, echo=NO, model=NO, history=NO, contact=NO
**
** PARTS
**
*Part, name=Part-1
*End Part
**  
**
** ASSEMBLY
**
*Assembly, name=Assembly
**  
*Instance, name=Part-1-1, part=Part-1
*Node
      1, -0.134245932, 0.000500000024
      2, -0.134245932,  0.134745926
      3,           0.,  0.134745926
      4,  0.134245932,  0.134745926
      5, -0.0718149766, 0.000500000024
      6, -0.0718149766, 0.0723149776
      7,           0., 0.0723149776
      8, 0.0718149766, 0.0723149776
      9, 0.000560242101, 0.00065247895
     10, 0.000325722125, 0.000379348232
     11, -0.00303697539, 0.000500000024
     12, -0.00303697539, 0.00353697548
     13,           0., 0.000859999971
     14,           0., 0.000500000024
     15, -0.000360000005, 0.000859999971
     16, -0.000360000005, 0.000500000024
     17, -0.134245932, 0.0116871614
     18, -0.134245932, 0.0228743218
     19, -0.134245932,  0.034061484
     20, -0.134245932, 0.0452486426
** ... 18701 like lines cut
*Element, type=CPE8RT
  1,  10,  71, 127, 115, 307, 320, 321, 322
  2,  71,  70, 128, 127, 306, 323, 324, 320
  3,  70,  69, 129, 128, 305, 325, 326, 323
  4,  69,  68, 130, 129, 304, 327, 328, 325
  5,  68,  67, 131, 130, 303, 329, 330, 327
  6,  67,  66, 132, 131, 302, 331, 332, 329
  7,  66,  65, 133, 132, 301, 333, 334, 331
  8,  65,  64, 134, 133, 300, 335, 336, 333
  9,  64,  63, 135, 134, 299, 337, 338, 335
 10,  63,  62, 136, 135, 298, 339, 340, 337
 11,  62,  61, 137, 136, 297, 341, 342, 339
 12,  61,   9,  83, 137, 296, 343, 344, 341
 13, 115, 127, 138, 114, 321, 345, 346, 347
 14, 127, 128, 139, 138, 324, 348, 349, 345
 15, 128, 129, 140, 139, 326, 350, 351, 348
 16, 129, 130, 141, 140, 328, 352, 353, 350
 17, 130, 131, 142, 141, 330, 354, 355, 352
 18, 131, 132, 143, 142, 332, 356, 357, 354
 19, 132, 133, 144, 143, 334, 358, 359, 356
 20, 133, 134, 145, 144, 336, 360, 361, 358
** ... 6114 like lines cut
*Nset, nset=Set-1, generate
     1,  18721,      1
*Elset, elset=Set-1, generate
    1,  6134,     1
** Section: Section-1
*Solid Section, elset=Set-1, material=MAT1
,
*End Instance
**  
*Nset, nset=Set-1, instance=Part-1-1
   637,   638,   639,   643,   644,   645,   646,   647,   649,   651,   654,   655,   665,  1064,  1067,  1069
  1071,  1073,  1075,  1077,  1079,  1081,  1083,  1085,  1087,  1090,  1091,  1104,  1108,  1110,  1114,  1121
  1122,  1128,  1131,  1135,  1136,  1141,  1146,  1151,  1466,  1502,  1527,  1552,  1577,  1602,  1627,  1652
  1677,  1702,  1727,  1752,  1777,  1802,  1826,  2743,  2747,  2755,  2756,  2766,  2769,  2770,  2771,  2772
  2773,  2778,  2782,  2787,  2795,  2798,  2801,  2806,  2813,  2829,  2839,  2844,  2856,  2857,  2859,  2869
  2874,  2876,  2879,  2882,  2889,  3860,  3896,  3921,  3946,  3971,  3996,  4021,  4046,  4071,  4096,  4121
  4146,  4171,  4196,  4221,  4246,  4271,  4296,  4321,  4346,  4371,  4396,  4421,  4446,  4471,  4496,  4521
  4546,  4571,  4595,  6054,  6064,  6068,  6076,  6077,  6092,  6094,  6296,  6332,  6357,  6382,  6407,  6432
  6456,  8073,  8084,  8109,  8130,  8131,  8316,  8352,  8377,  8402,  8426, 14959, 14960, 14961, 14963, 14964
 14966, 14969, 14970, 14971, 14972, 14973, 14974, 14975, 14976, 14977, 14978, 14979, 14981, 14982, 14983, 14984
 14985, 14987, 14988, 14989, 14990, 14991, 14992, 14993, 14994, 14995, 14996, 14997, 14999, 15001, 15002, 15004
 15005, 15006, 15007, 15008, 15009, 15011, 15012, 15013, 15014, 15015, 15016, 15018, 15019, 15581, 15605, 15629
 15653, 15677, 15701, 15725, 15749, 15773, 15797, 15821, 15845, 15869, 15893, 15917, 15941, 15965, 15989, 16013
 16037, 16061, 16085, 16109, 16133, 16157, 16181, 16205, 16229, 16253, 16277, 16301, 16325, 16349, 16373, 16397
 16421, 16445, 16469, 16493, 16517, 16541, 16565, 16589, 16613, 16637, 16661, 16685, 16709, 16733, 16757
*Elset, elset=Set-1, instance=Part-1-1
  277,  278,  279,  280,  281,  282,  283,  284,  285,  286,  287,  288,  289,  301,  313,  325
  337,  349,  361,  373,  385,  397,  409,  421,  433,  445,  457,  829,  841,  853,  865,  877
  889,  901,  913,  925,  937,  949,  961,  973,  985,  997, 1009, 1021, 1033, 1045, 1057, 1069
 1081, 1093, 1105, 1117, 1129, 1141, 1153, 1165, 1177, 1909, 1921, 1933, 1945, 1957, 1969, 1981
 2605, 2617, 2629, 2641, 2653, 4876, 4888, 4900, 4912, 4924, 4936, 4948, 4960, 4972, 4984, 4996
 5008, 5020, 5032, 5044, 5056, 5068, 5080, 5092, 5104, 5116, 5128, 5140, 5152, 5164, 5176, 5188
 5200, 5212, 5224, 5236, 5248, 5260, 5272, 5284, 5296, 5308, 5320, 5332, 5344, 5356, 5368, 5380
 5392, 5404, 5416, 5428, 5440, 5452, 5464
*Nset, nset=Set-102, instance=Part-1-1, generate
     1,  18721,      1
*Elset, elset=Set-102, instance=Part-1-1, generate
    1,  6134,     1
*Nset, nset=Hsurface, instance=Part-1-1
     1,     5,    10,    11,    14,    16,   105,   106,   107,   108,   109,   110,   111,   112,   113,   114
   115,   322,   347,   372,   397,   422,   447,   472,   497,   522,   547,   572,   597,   634,   639,   640
   641,   642,   652,   653,   658,   659,   661,   662,   666,   811,   836,   861,   886,   911,   936,   961
   986,  1011,  1036,  1061,  1086,  2198,  2200,  2202,  2204,  2205,  2207,  2208,  2209,  2211,  2216,  2218
  2219,  2220,  2225,  2403,  2428,  2453,  2478,  2503,  2528,  2553,  2578,  2603,  2628,  2653,  2678,  2703
  2728,  2742,  2753,  2760,  2768,  2774,  2776,  2780,  2797,  2805,  2809,  2811,  2818,  2824,  2828,  2837
  2838,  2840,  2847,  2850,  2852,  2858,  2864,  2867,  2870,  2871,  2877,  2886,  2893,  2894,  2898,  4630
  4655,  4680,  4705,  4730,  4755,  4780,  4805,  4830,  4855,  4880,  4905,  4930,  4955,  4980,  5005,  5030
  5055,  5080,  5105,  5130,  5155,  5180,  5205,  5230,  5255,  5280,  5305,  5330,  5344,  6065,  6069,  6079
  6084,  6086,  6090,  6491,  6516,  6541,  6566,  6591,  6616,  6630,  8069,  8074,  8077,  8127,  8132,  8473
  8498,  8523,  8548,  8562,  9308,  9309,  9310,  9311,  9312,  9313,  9314,  9315,  9316,  9317,  9318,  9442
  9466,  9490,  9514,  9538,  9562,  9586,  9610,  9634,  9658,  9682,  9705, 16759, 16760, 16761, 16762, 16763
 16764, 16766, 16767, 16768, 16769, 16770, 16771, 16772, 16773, 16774, 16775, 16776, 16777, 16778, 16779, 16780
 16781, 16782, 16783, 16784, 16785, 16789, 16790, 16791, 16792, 16794, 16795, 16796, 16798, 16802, 16803, 16804
 16805, 16806, 16807, 16808, 16809, 16810, 16812, 16813, 16814, 16815, 16816, 16817, 16818, 17361, 17385, 17409
 17433, 17457, 17481, 17505, 17529, 17553, 17577, 17601, 17625, 17649, 17673, 17697, 17721, 17745, 17769, 17793
 17817, 17841, 17865, 17889, 17913, 17937, 17961, 17985, 18009, 18033, 18057, 18081, 18105, 18129, 18153, 18177
 18201, 18225, 18249, 18273, 18297, 18321, 18345, 18369, 18393, 18417, 18441, 18465, 18489, 18513, 18537
*Nset, nset=OuterN, instance=Part-1-1
 10014, 10056, 10062, 10079, 10092, 10265, 10414, 10514, 10614, 10712, 10716, 10717, 10722, 10732, 10735, 10736
 10743, 10746, 10749, 10759, 10765, 10770, 10775, 10780, 10782, 10786, 10788, 10792, 10795, 10799, 10800, 10802
 10805, 12034, 12135, 12236, 12337, 12438, 12539, 12640, 12741, 12842, 12943, 13044, 13145, 13246, 13347, 13448
 13549, 13650, 13751, 13852, 13953, 14054, 14155, 14256, 14357, 14363, 14373, 14405, 14407, 14657, 14757, 14857
 14957, 14962, 14965, 14967, 14968, 14980, 14986, 14998, 15000, 15003, 15010, 15017, 16736, 16738, 16740, 16742 
 16744, 16746, 16748, 16750, 16752, 16754, 16756, 16758, 16765, 16772, 16786, 16787, 16788, 16793, 16797, 16799
 16800, 16801, 16811, 16819, 18536, 18539, 18541, 18543, 18545, 18547, 18549, 18551, 18553, 18555, 18557, 18558
*End Assembly
** 
** MATERIALS
** 
*Material, name=MAT1
*Density
1.,
*Depvar
     16,
1, EE11, EE11
2, EE22, EE22
3, EE33, EE33
4, EE12, EE12
5, EP11, EP11
6, EP22, EP22
7, EP33, EP33
8, EP12, EP12
9, PEEQ, PEEQ
10, DPEEQ, DPEEQ
11, RHO, RHO
12, CT1, CT1
13, CT2, CT2
14, CT3, CT3
15, CT, CT
16, C, C
*User Material, constants=4, type=MECHANICAL
201880., 0.3, 595., 0.059
** E, v, Sy, N
*User Material, constants=8, type=THERMAL
0.01271, 4, 20.2e6, 0., 58.6e6, 8.464e13, 11.5e6, 8.464e17  
**D, kflag, Wb_1 (kJ/mol), Nt_1, Wb_2, Nt_2, Wb_3, Nt_3, ..., Wb_n, Nt_n
** kflag: 0 - No traps, 1 - no dislocations, 2 - Sofronis & McMeeking,  
** 3 - Krom et al., 4 - Dadfarnia et al., 5 - Fernandez-Sousa et al.
** 
** PREDEFINED FIELDS
** 
** Name: Predefined Field-1   Type: Temperature
*Initial Conditions, type=TEMPERATURE
Set-102, 2.659e11
** ----------------------------------------------------------------
** 
** STEP: Step-1
** 
*Step, name=Step-1, nlgeom=YES, inc=1000000, unsymm=YES, amplitude=RAMP
*Coupled Temperature-displacement, creep=none, deltmx=1e13
0.0001, 1., 1e-25, 0.01
** BOUNDARY CONDITIONS
**
** Name: BC-1 Type: Displacement/Rotation
*Boundary
Set-1, 2, 2
** 
** Name: OuterK Type: Displacement/Rotation
*Boundary, user
OuterN, 1, 1, 1.
OuterN, 2, 2, 1.
** Name: SurfaceH Type: Temperature
*Boundary
Hsurface, 11, 11, 2.659e13
** 
** OUTPUT REQUESTS
** 
*Restart, write, frequency=0
** 
** FIELD OUTPUT: F-Output-1
** 
*Output, field, frequency=100
*Node Output
NT, RF, RFL, U
*Element Output, directions=YES
E, HFL, LE, S, SDV, TEMP
** 
** HISTORY OUTPUT: H-Output-1
** 
*Output, history, variable=PRESELECT
*End Step