*Heading
** Job name: Job-2 Model name: DST-pressure
** Generated by: Abaqus/CAE 2020
*Preprint, echo=NO, model=NO, history=NO, contact=NO
**
** PARTS
**
*Part, name=Part-1
*Node
      1,           0.,   35.5900002
      2,          50.,   35.5900002
      3,          50.,          50.
      4,           0.,          50.
      5,           0.,   25.8824997
      6,          50.,   25.8824997
      7,           0.,   24.1175003
      8,          50.,   24.1175003
      9,           0.,           0.
     10,          50.,           0.
     11,  0.200000003,   35.5900002
     12,  0.400000006,   35.5900002
     13,  0.600000024,   35.5900002
     14,  0.800000012,   35.5900002
     15,           1.,   35.5900002
     16,   1.20000005,   35.5900002
     17,   1.39999998,   35.5900002
     18,   1.60000002,   35.5900002
     19,   1.79999995,   35.5900002
     20,           2.,   35.5900002
** ... 22551 like lines cut
*Element, type=CPE4T
   1,   11,   12, 1366, 5320
   2, 5333, 5039,  334,  335
   3, 5103, 5039,  896, 5166
   4,  332, 5106, 5179,  331
   5, 5098,  330,  331, 5179
   6, 5326, 5102, 1022, 5218
   7, 5188,  327,  328, 5218
   8, 5101,  326,  327, 5188
   9, 1119,  324,  325, 5175
  10, 5190,  322,  323, 1119
  11,  324, 1119,  323,    4
  12,  305,  306, 5319, 5088
  13, 1107, 5311, 5312, 1106
  14, 1073, 5302, 5234, 5270
  15, 1008, 4978, 4948, 4909
  16, 4910, 4936, 4862, 4889
  17, 4732, 4709,  942, 4641
  18, 4485, 5767, 4500, 4478
  19, 4181, 4012, 4082, 4219
  20, 2798, 2795, 2952, 2965
** ... 22409 like lines cut
*Nset, nset=Set-5, generate
     1,  22571,      1
*Elset, elset=Set-5, generate
     1,  22429,      1
** Section: Section-1
*Solid Section, elset=Set-5, material=Material-1
,
*End Part
**  
**
** ASSEMBLY
**
*Assembly, name=Assembly
**  
*Instance, name=Part-1-1, part=Part-1
*End Instance
**  
*Node
      1,           0.,          50.,           0.
*Nset, nset=Set-27, instance=Part-1-1
   1,   4, 324, 325, 326, 327, 328, 329, 330, 331, 332, 333, 334, 335, 336, 337
 338,
*Elset, elset=Set-27, instance=Part-1-1
    2,    4,    5,    7,    8,    9,   11,  315,  815,  816,  817,  818,  819, 1066, 1069, 5048
*Nset, nset=Set-28, instance=Part-1-1
   9,  10, 758, 759, 760, 761, 762, 763, 764, 765, 766, 767, 768, 769, 770, 771
 772, 773, 774, 775, 776, 777, 778, 779, 780, 781, 782, 783, 784, 785, 786, 787
 788, 789, 790, 791, 792, 793, 794, 795, 796, 797, 798, 799, 800, 801, 802, 803
 804, 805, 806
*Elset, elset=Set-28, instance=Part-1-1
 21016, 21030, 21043, 21061, 21063, 21088, 21107, 21108, 21109, 21133, 21151, 21153, 21179, 21232, 21235, 21236
 21237, 21238, 21249, 21250, 21261, 21271, 21284, 21296, 21308, 21309, 21321, 21322, 21333, 21553, 21554, 21555
 21558, 21561, 21562, 21567, 21568, 21571, 21574, 21575, 21576, 21577, 21590, 21607, 21608, 21617, 21631, 21632
 21644, 21647
*Nset, nset=Set-29, instance=Part-1-1
   1,   4, 324, 325, 326, 327, 328, 329, 330, 331, 332, 333, 334, 335, 336, 337
 338,
*Elset, elset=Set-29, instance=Part-1-1
    2,    4,    5,    7,    8,    9,   11,  315,  815,  816,  817,  818,  819, 1066, 1069, 5048
*Nset, nset=Set-30, instance=Part-1-1
   1,   2,  11,  12,  13,  14,  15,  16,  17,  18,  19,  20,  21,  22,  23,  24
  25,  26,  27,  28,  29,  30,  31,  32,  33,  34,  35,  36,  37,  38,  39,  40
  41,  42,  43,  44,  45,  46,  47,  48,  49,  50,  51,  52,  53,  54,  55,  56
  57,  58,  59,  60,  61,  62,  63,  64,  65,  66,  67,  68,  69,  70,  71,  72
  73,  74,  75,  76,  77,  78,  79,  80,  81,  82,  83,  84,  85,  86,  87,  88
  89,  90,  91,  92,  93,  94,  95,  96,  97,  98,  99, 100, 101, 102, 103, 104
 105, 106, 107, 108, 109, 110, 111, 112, 113, 114, 115, 116, 117, 118, 119, 120
 121, 122, 123, 124, 125, 126, 127, 128, 129, 130, 131, 132, 133, 134, 135, 136
 137, 138, 139, 140, 141, 142, 143, 144, 145, 146, 147, 148, 149, 150, 151, 152
 153, 154, 155, 156, 157, 158, 159, 160, 161, 162, 163, 164, 165, 166, 167, 168
 169, 170, 171, 172, 173, 174, 175, 176, 177, 178, 179, 180, 181, 182, 183, 184
 185, 186, 187, 188, 189, 190, 191, 192, 193, 194, 195, 196, 197, 198, 199, 200
 201, 202, 203, 204, 205, 206, 207, 208, 209, 210, 211, 212, 213, 214, 215, 216
 217, 218, 219, 220, 221, 222, 223, 224, 225, 226, 227, 228, 229, 230, 231, 232
 233, 234, 235, 236, 237, 238, 239, 240, 241, 242, 243, 244, 245, 246, 247, 248
 249, 250, 251, 252, 253, 254, 255, 256, 257, 258, 259
*Elset, elset=Set-30, instance=Part-1-1
     1,    21,    23,    24,    25,    26,    56,    57,    64,    72,    78,    83,    88,    89,    92,    93
    95,    96,    97,    98,    99,   100,   110,   111,   123,   134,   156,   167,   168,   179,   180,   189
   190,   201,   202,   299,   300,   301,   302,   332,   333,   347,   361,   372,   378,   379,   380,   389
   390,   394,   396,   399,   633,   634,   635,   636,   638,   639,   640,   641,   643,   644,   645,   647
   648,   649,   650,   651,   652,   653,   654,   655,   656,   657,   658,   659,   660,   661,   662,   663
   665,   666,   667,   668,   669,   671,   672,   673,   674,   675,   677,   678,   679,   681,   682,   684
   685,   686,   687,   688,   690,   692,   694,   695,   697,   699,   701,   703,   704,   705,   706,   707
   709,   710,   712,   713,   714,   715,   716,   717,   719,   720,   721,   722,   723,   724,   725,   728
   730,   732,   733,   734,   735,   737,   738,   739,   740,   741,   742,   743,   744,   746,   747,   748
   749,   750,   752,   753,   754,   755,   756,   757,   758,   759,   760,   761,   762,   763,   764,   765
   766,   767,   768,   769,   770,   771,   772,   773,   774,   775,   776,   777,   778,   779,   780,   781
   782,   783,   784,   785,   786,   788,   789,   790,   791,   792,   793,   794,   795,   796,   797,   798
   799,   800,   801,   802,   803,   815,   827,   829,   830,   831,   844,   852,   855,   858,   859,   866
   884,   888,   892,   894,   898,   901,   905,   908,   911,   914,   917,   920,   924,   928,   933,   936
   939,   943,   946,   950,   952,   955,   958,   960,   963,   966,   968,   972,   976,   978,   982,   983
   987,   989,   993,   995,  1002,  1004,  1007,  1011,  1014,  1067,  5224,  5225,  5249,  5250,  5272,  5319
  5320,  5344,  5345,  5367,  5368,  5389,  5390,  5414,  5437,  5461,  5486,  5508,  5509,  5550,  5552,  5593
  5616,  5639,  5663,  5688,  5712,  5737,  5761,  5785,  5809,  5831,  5855,  5896,  5897,  5899,  5945,  5946
  5969,  5970,  5993,  6016,  6039,  6064,  6089,  6111,  6135,  6160,  6185,  6225,  6226,  6228,  6273,  6274
  6297,  6320,  6321,  6345,  6346,  6369,  6394,  6395,  6418,  6442,  6443,  6489,  6514,  6515,  6538,  6579
** ... 12 like lines cut
*Nset, nset=Set-31, instance=Part-1-1
   3,   4, 275, 276, 277, 278, 279, 280, 281, 282, 283, 284, 285, 286, 287, 288
 289, 290, 291, 292, 293, 294, 295, 296, 297, 298, 299, 300, 301, 302, 303, 304
 305, 306, 307, 308, 309, 310, 311, 312, 313, 314, 315, 316, 317, 318, 319, 320
 321, 322, 323
*Elset, elset=Set-31, instance=Part-1-1
   10,   11,   12,   34,   36,   37,  109,  120,  121,  132,  142,  143,  154,  166,  177,  178
  188,  199,  200,  210,  211,  222,  232,  239,  248,  256,  262,  268,  273,  277,  280,  282
  283,  284,  286,  289,  629,  810,  811,  812,  813,  814, 4885, 4887, 4889, 4891, 4892, 4893
 5000, 5046
*Nset, nset=Set-32, instance=Part-1-1
   1,   2,   3,   4,   9,  10, 260, 261, 262, 263, 264, 265, 266, 267, 268, 269
 270, 271, 272, 273, 274, 324, 325, 326, 327, 328, 329, 330, 331, 332, 333, 334
 335, 336, 337, 338, 758, 759, 760, 761, 762, 763, 764, 765, 766, 767, 768, 769
 770, 771, 772, 773, 774, 775, 776, 777, 778, 779, 780, 781, 782, 783, 784, 785
 786, 787, 788, 789, 790, 791, 792, 793, 794, 795, 796, 797, 798, 799, 800, 801
 802, 803, 804, 805, 806
*Elset, elset=Set-32, instance=Part-1-1
     2,     4,     5,     7,     8,     9,    11,   203,   205,   208,   210,   315,   427,   520,   586,   803
   804,   805,   806,   809,   815,   816,   817,   818,   819,  1065,  1066,  1069,  1070,  2624,  4904,  5048
 21016, 21030, 21043, 21061, 21063, 21088, 21107, 21108, 21109, 21133, 21151, 21153, 21179, 21232, 21235, 21236
 21237, 21238, 21249, 21250, 21261, 21271, 21284, 21296, 21308, 21309, 21321, 21322, 21333, 21553, 21554, 21555
 21558, 21561, 21562, 21567, 21568, 21571, 21574, 21575, 21576, 21577, 21590, 21607, 21608, 21617, 21631, 21632
 21644, 21647
*Nset, nset=Set-33, instance=Part-1-1
   1,   2,   3,   4,   6,  11,  12,  13,  14,  15,  16,  17,  18,  19,  20,  21
  22,  23,  24,  25,  26,  27,  28,  29,  30,  31,  32,  33,  34,  35,  36,  37
  38,  39,  40,  41,  42,  43,  44,  45,  46,  47,  48,  49,  50,  51,  52,  53
  54,  55,  56,  57,  58,  59,  60,  61,  62,  63,  64,  65,  66,  67,  68,  69
  70,  71,  72,  73,  74,  75,  76,  77,  78,  79,  80,  81,  82,  83,  84,  85
  86,  87,  88,  89,  90,  91,  92,  93,  94,  95,  96,  97,  98,  99, 100, 101
 102, 103, 104, 105, 106, 107, 108, 109, 110, 111, 112, 113, 114, 115, 116, 117
 118, 119, 120, 121, 122, 123, 124, 125, 126, 127, 128, 129, 130, 131, 132, 133
 134, 135, 136, 137, 138, 139, 140, 141, 142, 143, 144, 145, 146, 147, 148, 149
 150, 151, 152, 153, 154, 155, 156, 157, 158, 159, 160, 161, 162, 163, 164, 165
 166, 167, 168, 169, 170, 171, 172, 173, 174, 175, 176, 177, 178, 179, 180, 181
 182, 183, 184, 185, 186, 187, 188, 189, 190, 191, 192, 193, 194, 195, 196, 197
 198, 199, 200, 201, 202, 203, 204, 205, 206, 207, 208, 209, 210, 211, 212, 213
 214, 215, 216, 217, 218, 219, 220, 221, 222, 223, 224, 225, 226, 227, 228, 229
 230, 231, 232, 233, 234, 235, 236, 237, 238, 239, 240, 241, 242, 243, 244, 245
 246, 247, 248, 249, 250, 251, 252, 253, 254, 255, 256, 257, 258, 259, 275, 276
 277, 278, 279, 280, 281, 282, 283, 284, 285, 286, 287, 288, 289, 290, 291, 292
 293, 294, 295, 296, 297, 298, 299, 300, 301, 302, 303, 304, 305, 306, 307, 308
 309, 310, 311, 312, 313, 314, 315, 316, 317, 318, 319, 320, 321, 322, 323, 588
 589, 590, 591, 592, 593, 594, 595, 596, 597, 598, 599, 600, 601, 602, 603, 604
 605, 606, 607, 608, 609, 610, 611, 612, 613, 614, 615, 616, 617, 618, 619, 620
 621, 622, 623, 624, 625, 626, 627, 628, 629, 630, 631, 632, 633, 634, 635
*Elset, elset=Set-33, instance=Part-1-1
     1,    10,    11,    12,    21,    23,    24,    25,    26,    34,    36,    37,    56,    57,    64,    72
    78,    83,    88,    89,    92,    93,    95,    96,    97,    98,    99,   100,   109,   110,   111,   120
   121,   123,   132,   134,   142,   143,   154,   156,   166,   167,   168,   177,   178,   179,   180,   188
   189,   190,   199,   200,   201,   202,   210,   211,   222,   232,   239,   248,   256,   262,   268,   273
   277,   280,   282,   283,   284,   286,   289,   299,   300,   301,   302,   332,   333,   347,   361,   372
   378,   379,   380,   389,   390,   394,   396,   399,   629,   633,   634,   635,   636,   638,   639,   640
   641,   643,   644,   645,   647,   648,   649,   650,   651,   652,   653,   654,   655,   656,   657,   658
   659,   660,   661,   662,   663,   665,   666,   667,   668,   669,   671,   672,   673,   674,   675,   677
   678,   679,   681,   682,   684,   685,   686,   687,   688,   690,   692,   694,   695,   697,   699,   701
   703,   704,   705,   706,   707,   709,   710,   712,   713,   714,   715,   716,   717,   719,   720,   721
   722,   723,   724,   725,   728,   730,   732,   733,   734,   735,   737,   738,   739,   740,   741,   742
   743,   744,   746,   747,   748,   749,   750,   752,   753,   754,   755,   756,   757,   758,   759,   760
   761,   762,   763,   764,   765,   766,   767,   768,   769,   770,   771,   772,   773,   774,   775,   776
   777,   778,   779,   780,   781,   782,   783,   784,   785,   786,   788,   789,   790,   791,   792,   793
   794,   795,   796,   797,   798,   799,   800,   801,   802,   803,   810,   811,   812,   813,   814,   815
   827,   829,   830,   831,   844,   852,   855,   858,   859,   866,   884,   888,   892,   894,   898,   901
   905,   908,   911,   914,   917,   920,   924,   928,   933,   936,   939,   943,   946,   950,   952,   955
   958,   960,   963,   966,   968,   972,   976,   978,   982,   983,   987,   989,   993,   995,  1002,  1004
  1007,  1011,  1014,  1067,  4885,  4887,  4889,  4891,  4892,  4893,  5000,  5046,  5224,  5225,  5249,  5250
  5272,  5319,  5320,  5344,  5345,  5367,  5368,  5389,  5390,  5414,  5437,  5461,  5486,  5508,  5509,  5550
** ... 18 like lines cut
*Nset, nset=Set-36, instance=Part-1-1
   1,   2,  11,  12,  13,  14,  15,  16,  17,  18,  19,  20,  21,  22,  23,  24
  25,  26,  27,  28,  29,  30,  31,  32,  33,  34,  35,  36,  37,  38,  39,  40
  41,  42,  43,  44,  45,  46,  47,  48,  49,  50,  51,  52,  53,  54,  55,  56
  57,  58,  59,  60,  61,  62,  63,  64,  65,  66,  67,  68,  69,  70,  71,  72
  73,  74,  75,  76,  77,  78,  79,  80,  81,  82,  83,  84,  85,  86,  87,  88
  89,  90,  91,  92,  93,  94,  95,  96,  97,  98,  99, 100, 101, 102, 103, 104
 105, 106, 107, 108, 109, 110, 111, 112, 113, 114, 115, 116, 117, 118, 119, 120
 121, 122, 123, 124, 125, 126, 127, 128, 129, 130, 131, 132, 133, 134, 135, 136
 137, 138, 139, 140, 141, 142, 143, 144, 145, 146, 147, 148, 149, 150, 151, 152
 153, 154, 155, 156, 157, 158, 159, 160, 161, 162, 163, 164, 165, 166, 167, 168
 169, 170, 171, 172, 173, 174, 175, 176, 177, 178, 179, 180, 181, 182, 183, 184
 185, 186, 187, 188, 189, 190, 191, 192, 193, 194, 195, 196, 197, 198, 199, 200
 201, 202, 203, 204, 205, 206, 207, 208, 209, 210, 211, 212, 213, 214, 215, 216
 217, 218, 219, 220, 221, 222, 223, 224, 225, 226, 227, 228, 229, 230, 231, 232
 233, 234, 235, 236, 237, 238, 239, 240, 241, 242, 243, 244, 245, 246, 247, 248
 249, 250, 251, 252, 253, 254, 255, 256, 257, 258, 259
*Elset, elset=Set-36, instance=Part-1-1
     1,    21,    23,    24,    25,    26,    56,    57,    64,    72,    78,    83,    88,    89,    92,    93
    95,    96,    97,    98,    99,   100,   110,   111,   123,   134,   156,   167,   168,   179,   180,   189
   190,   201,   202,   299,   300,   301,   302,   332,   333,   347,   361,   372,   378,   379,   380,   389
   390,   394,   396,   399,   633,   634,   635,   636,   638,   639,   640,   641,   643,   644,   645,   647
   648,   649,   650,   651,   652,   653,   654,   655,   656,   657,   658,   659,   660,   661,   662,   663
   665,   666,   667,   668,   669,   671,   672,   673,   674,   675,   677,   678,   679,   681,   682,   684
   685,   686,   687,   688,   690,   692,   694,   695,   697,   699,   701,   703,   704,   705,   706,   707
   709,   710,   712,   713,   714,   715,   716,   717,   719,   720,   721,   722,   723,   724,   725,   728
   730,   732,   733,   734,   735,   737,   738,   739,   740,   741,   742,   743,   744,   746,   747,   748
   749,   750,   752,   753,   754,   755,   756,   757,   758,   759,   760,   761,   762,   763,   764,   765
   766,   767,   768,   769,   770,   771,   772,   773,   774,   775,   776,   777,   778,   779,   780,   781
   782,   783,   784,   785,   786,   788,   789,   790,   791,   792,   793,   794,   795,   796,   797,   798
   799,   800,   801,   802,   803,   815,   827,   829,   830,   831,   844,   852,   855,   858,   859,   866
   884,   888,   892,   894,   898,   901,   905,   908,   911,   914,   917,   920,   924,   928,   933,   936
   939,   943,   946,   950,   952,   955,   958,   960,   963,   966,   968,   972,   976,   978,   982,   983
   987,   989,   993,   995,  1002,  1004,  1007,  1011,  1014,  1067,  5224,  5225,  5249,  5250,  5272,  5319
  5320,  5344,  5345,  5367,  5368,  5389,  5390,  5414,  5437,  5461,  5486,  5508,  5509,  5550,  5552,  5593
  5616,  5639,  5663,  5688,  5712,  5737,  5761,  5785,  5809,  5831,  5855,  5896,  5897,  5899,  5945,  5946
  5969,  5970,  5993,  6016,  6039,  6064,  6089,  6111,  6135,  6160,  6185,  6225,  6226,  6228,  6273,  6274
  6297,  6320,  6321,  6345,  6346,  6369,  6394,  6395,  6418,  6442,  6443,  6489,  6514,  6515,  6538,  6579
** ... 12 like lines cut
*Nset, nset=Set-37
 1,
*Nset, nset=Set-38, instance=Part-1-1
   1,   4,   9,  10, 324, 325, 326, 327, 328, 329, 330, 331, 332, 333, 334, 335
 336, 337, 338, 758, 759, 760, 761, 762, 763, 764, 765, 766, 767, 768, 769, 770
 771, 772, 773, 774, 775, 776, 777, 778, 779, 780, 781, 782, 783, 784, 785, 786
 787, 788, 789, 790, 791, 792, 793, 794, 795, 796, 797, 798, 799, 800, 801, 802
 803, 804, 805, 806
*Elset, elset=Set-38, instance=Part-1-1
     2,     4,     5,     7,     8,     9,    11,   315,   815,   816,   817,   818,   819,  1066,  1069,  5048
 21016, 21030, 21043, 21061, 21063, 21088, 21107, 21108, 21109, 21133, 21151, 21153, 21179, 21232, 21235, 21236
 21237, 21238, 21249, 21250, 21261, 21271, 21284, 21296, 21308, 21309, 21321, 21322, 21333, 21553, 21554, 21555
 21558, 21561, 21562, 21567, 21568, 21571, 21574, 21575, 21576, 21577, 21590, 21607, 21608, 21617, 21631, 21632
 21644, 21647
*Nset, nset=Set-39, instance=Part-1-1
   1,   4, 324, 325, 326, 327, 328, 329, 330, 331, 332, 333, 334, 335, 336, 337
 338,
*Elset, elset=Set-39, instance=Part-1-1
    2,    4,    5,    7,    8,    9,   11,  315,  815,  816,  817,  818,  819, 1066, 1069, 5048
*Nset, nset=Set-40, instance=Part-1-1
   9,  10, 758, 759, 760, 761, 762, 763, 764, 765, 766, 767, 768, 769, 770, 771
 772, 773, 774, 775, 776, 777, 778, 779, 780, 781, 782, 783, 784, 785, 786, 787
 788, 789, 790, 791, 792, 793, 794, 795, 796, 797, 798, 799, 800, 801, 802, 803
 804, 805, 806
*Elset, elset=Set-40, instance=Part-1-1
 21016, 21030, 21043, 21061, 21063, 21088, 21107, 21108, 21109, 21133, 21151, 21153, 21179, 21232, 21235, 21236
 21237, 21238, 21249, 21250, 21261, 21271, 21284, 21296, 21308, 21309, 21321, 21322, 21333, 21553, 21554, 21555
 21558, 21561, 21562, 21567, 21568, 21571, 21574, 21575, 21576, 21577, 21590, 21607, 21608, 21617, 21631, 21632
 21644, 21647
*Nset, nset=Set-41, instance=Part-1-1
 10,
*Nset, nset=Set-42, instance=Part-1-1
   1,   4, 324, 325, 326, 327, 328, 329, 330, 331, 332, 333, 334, 335, 336, 337
 338,
*Elset, elset=Set-42, instance=Part-1-1
    2,    4,    5,    7,    8,    9,   11,  315,  815,  816,  817,  818,  819, 1066, 1069, 5048
*Nset, nset=Set-44, instance=Part-1-1
   3,   4, 275, 276, 277, 278, 279, 280, 281, 282, 283, 284, 285, 286, 287, 288
 289, 290, 291, 292, 293, 294, 295, 296, 297, 298, 299, 300, 301, 302, 303, 304
 305, 306, 307, 308, 309, 310, 311, 312, 313, 314, 315, 316, 317, 318, 319, 320
 321, 322, 323
*Elset, elset=Set-44, instance=Part-1-1
   10,   11,   12,   34,   36,   37,  109,  120,  121,  132,  142,  143,  154,  166,  177,  178
  188,  199,  200,  210,  211,  222,  232,  239,  248,  256,  262,  268,  273,  277,  280,  282
  283,  284,  286,  289,  629,  810,  811,  812,  813,  814, 4885, 4887, 4889, 4891, 4892, 4893
 5000, 5046
*Nset, nset=Set-45, instance=Part-1-1
   1,   4,   5, 324, 325, 326, 327, 328, 329, 330, 331, 332, 333, 334, 335, 336
 337, 338, 636, 637, 638, 639, 640, 641, 642, 643, 644, 645, 646, 647, 648, 649
 650, 651, 652, 653, 654, 655, 656, 657, 658, 659, 660, 661, 662, 663, 664, 665
 666, 667, 668, 669, 670, 671, 672, 673, 674, 675, 676, 677, 678, 679, 680, 681
 682, 683
*Elset, elset=Set-45, instance=Part-1-1
     2,     4,     5,     7,     8,     9,    11,   315,   815,   816,   817,   818,   819,  1066,  1069,  5048
  5202,  5203,  5204,  5205,  5206,  5207,  5214,  5215,  5225,  7047,  7048,  7049,  7050,  7051,  7052,  7053
  7054,  7055,  7056,  7057,  7058,  7059,  7060,  7061,  7062,  7063, 10344, 10345, 10346, 10347, 10348, 10349
 10353, 10356, 10361, 10363, 10365, 10366, 10367, 10369, 10371, 10373, 10380, 10414, 10416, 10418, 10420, 10422
 10423,
*Nset, nset=Set-46, instance=Part-1-1
   8,  10, 807, 808, 809, 810, 811, 812, 813, 814, 815, 816, 817, 818, 819, 820
 821, 822, 823, 824, 825, 826, 827, 828, 829
*Elset, elset=Set-46, instance=Part-1-1
 21005, 21006, 21007, 21008, 21009, 21010, 21011, 21012, 21013, 21014, 21015, 21016, 21017, 21578, 21579, 21580
 21581, 21582, 21583, 21584, 21585, 21586, 21587, 21678
*Nset, nset=Set-47, instance=Part-1-1
   9,  10, 758, 759, 760, 761, 762, 763, 764, 765, 766, 767, 768, 769, 770, 771
 772, 773, 774, 775, 776, 777, 778, 779, 780, 781, 782, 783, 784, 785, 786, 787
 788, 789, 790, 791, 792, 793, 794, 795, 796, 797, 798, 799, 800, 801, 802, 803
 804, 805, 806
*Elset, elset=Set-47, instance=Part-1-1
 21016, 21030, 21043, 21061, 21063, 21088, 21107, 21108, 21109, 21133, 21151, 21153, 21179, 21232, 21235, 21236
 21237, 21238, 21249, 21250, 21261, 21271, 21284, 21296, 21308, 21309, 21321, 21322, 21333, 21553, 21554, 21555
 21558, 21561, 21562, 21567, 21568, 21571, 21574, 21575, 21576, 21577, 21590, 21607, 21608, 21617, 21631, 21632
 21644, 21647
*Nset, nset=Set-48, instance=Part-1-1
   8,  10, 807, 808, 809, 810, 811, 812, 813, 814, 815, 816, 817, 818, 819, 820
 821, 822, 823, 824, 825, 826, 827, 828, 829
*Elset, elset=Set-48, instance=Part-1-1
 21005, 21006, 21007, 21008, 21009, 21010, 21011, 21012, 21013, 21014, 21015, 21016, 21017, 21578, 21579, 21580
 21581, 21582, 21583, 21584, 21585, 21586, 21587, 21678
*Nset, nset=p_Set-43, instance=Part-1-1
   3,   4, 275, 276, 277, 278, 279, 280, 281, 282, 283, 284, 285, 286, 287, 288
 289, 290, 291, 292, 293, 294, 295, 296, 297, 298, 299, 300, 301, 302, 303, 304
 305, 306, 307, 308, 309, 310, 311, 312, 313, 314, 315, 316, 317, 318, 319, 320
 321, 322, 323
*Elset, elset=p_Set-43, instance=Part-1-1
   10,   11,   12,   34,   36,   37,  109,  120,  121,  132,  142,  143,  154,  166,  177,  178
  188,  199,  200,  210,  211,  222,  232,  239,  248,  256,  262,  268,  273,  277,  280,  282
  283,  284,  286,  289,  629,  810,  811,  812,  813,  814, 4885, 4887, 4889, 4891, 4892, 4893
 5000, 5046
*Nset, nset=t_Set-34, instance=Part-1-1
   3,   4, 275, 276, 277, 278, 279, 280, 281, 282, 283, 284, 285, 286, 287, 288
 289, 290, 291, 292, 293, 294, 295, 296, 297, 298, 299, 300, 301, 302, 303, 304
 305, 306, 307, 308, 309, 310, 311, 312, 313, 314, 315, 316, 317, 318, 319, 320
 321, 322, 323
*Elset, elset=t_Set-34, instance=Part-1-1
   10,   11,   12,   34,   36,   37,  109,  120,  121,  132,  142,  143,  154,  166,  177,  178
  188,  199,  200,  210,  211,  222,  232,  239,  248,  256,  262,  268,  273,  277,  280,  282
  283,  284,  286,  289,  629,  810,  811,  812,  813,  814, 4885, 4887, 4889, 4891, 4892, 4893
 5000, 5046
*Nset, nset=_PickedSet59, internal
 1,
*Elset, elset=_Surf-2_S2, internal, instance=Part-1-1
  10,  36,  37, 109, 120, 121, 132, 143, 154, 178, 188, 200, 210, 211, 222, 239
 256, 262, 812, 813, 814
*Elset, elset=_Surf-2_S3, internal, instance=Part-1-1
   11,  273,  277,  280,  282,  284,  286,  289,  629, 4892
*Elset, elset=_Surf-2_S1, internal, instance=Part-1-1
   12,  199,  283,  810,  811, 4887, 4889, 4891, 4893, 5000, 5046
*Elset, elset=_Surf-2_S4, internal, instance=Part-1-1
   34,  142,  166,  177,  232,  248,  268, 4885
*Surface, type=ELEMENT, name=Surf-2
_Surf-2_S2, S2
_Surf-2_S3, S3
_Surf-2_S4, S4
_Surf-2_S1, S1
*End Assembly
** 
** MATERIALS
** 
*Material, name=Material-1
*Conductivity
1.,
*Depvar
     1,
*User Material, constants=10
25000.,  0.2,  0.2, 0.15,   0.,   0.,   3.,   2.
   0.,  -0.117851
**E=props(1) ! Young's modulus
**xnu=props(2) ! Poisson's ratio
**xl=props(3) ! Length scale
**Gc=props(4) ! Toughness
**kflagS=int(props(5)) ! Solution flag (0: monolithic, 1: staggered)
**kflagC=int(props(6)) ! Model (0:AT2, 1:AT1, 2:PF-CZM/linear, 3:PF-CZM/exp])
**kflagD=int(props(7)) ! Split (0: No split, 1: Amor, 2: Miehe, 3: Drucker-Prager based)
**kflagH=int(props(8)) ! Split linear momentum (1:Hybrid/no split, 2:Anisotropic)
**ft=props(9) ! Tensile strength (only relevant to kflagC=2 or kflagC=3)
**BDP=props(10) ! B parameter of Drucker-Prager model
** 
** INTERACTION PROPERTIES
** 
*Surface Interaction, name=IntProp-1
1.,
*Friction
0.,
*Surface Behavior, pressure-overclosure=HARD
** 
** BOUNDARY CONDITIONS
** 
** Name: BC-8 Type: Displacement/Rotation
*Boundary
Set-47, 2, 2
** Name: BC-9 Type: Displacement/Rotation
*Boundary
Set-48, 1, 1
** ----------------------------------------------------------------
** 
** STEP: Step-1
** 
*Step, name=Step-1, nlgeom=NO, extrapolation=NO, inc=1000000, unsymm=NO
*Coupled Temperature-displacement, creep=none, steady state
0.01, 1., 1e-50, 0.01
*Solution Technique, type=SEPARATED
** 
** BOUNDARY CONDITIONS
** 
** Name: BC-6 Type: Displacement/Rotation
*Boundary
Set-45, 1, 1, 0.15
** 
** CONTROLS
** 
*Controls, reset
*Controls, parameters=time incrementation
100000, 10000000, 10000000, 10000000, 10000000, 10000000, 10000000, 10000000, 10000000, 10, 10000000
** 
** OUTPUT REQUESTS
** 
*Restart, write, frequency=0
** 
** FIELD OUTPUT: F-Output-1
** 
*Output, field
*Node Output
NT, RF, U
*Element Output, directions=YES
E, EVOL, IVOL, S, SVOL, SDV
*Output, history, frequency=0
*End Step
