*Heading
** Job name: DCB50FELIni Model name: DCB50-Full-1el
** Generated by: Abaqus/CAE 2021
*Preprint, echo=NO, model=NO, history=NO, contact=NO
**
** PARTS
**
*Part, name=Part-1
*Node
      1,         -2.5,  -5.05000019
      2,         -2.5,  -2.54999995
      3,         -2.5, -0.0500000007
      4,         -50., -0.0500000007
      5,         -50.,  -5.05000019
      6,           0.,  -5.05000019
      7,           0.,  -2.54999995
      8,           0., -0.0500000007
      9,         -2.5, 0.0500000007
     10,         -50., 0.0500000007
     11,          50.,  -5.05000019
     12,          50.,  -2.54999995
     13,  0.400000006,  -2.54999995
     14,  0.400000006, -0.0500000007
     15,           0., 0.0500000007
     16,         -2.5,   2.54999995
     17,         -2.5,   5.05000019
     18,         -50.,   5.05000019
     19,         52.5,           0.
     20,         150.,           0.
** ... 35883 like lines cut
*Element, type=DC2D4
  1,    1,   35, 2824,  137
  2,   35,   36, 2825, 2824
  3,   36,    2, 2826, 2825
  4,    2,   37, 2827, 2826
  5,   37,   38, 2828, 2827
  6,   38,    3,   39, 2828
  7,  137, 2824, 2829,  136
  8, 2824, 2825, 2830, 2829
  9, 2825, 2826, 2831, 2830
 10, 2826, 2827, 2832, 2831
 11, 2827, 2828, 2833, 2832
 12, 2828,   39,   40, 2833
 13,  136, 2829, 2834,  135
 14, 2829, 2830, 2835, 2834
 15, 2830, 2831, 2836, 2835
 16, 2831, 2832, 2837, 2836
 17, 2832, 2833, 2838, 2837
 18, 2833,   40,   41, 2838
 19,  135, 2834, 2839,  134
 20, 2834, 2835, 2840, 2839
** ... 35611 like lines cut
*Nset, nset=LoadT
 18,
*Nset, nset=LoadB
 5,
*Nset, nset=Interface
   14,   27,   28,   33, 1194, 1195, 1196, 1197, 1198, 1199, 1200, 1201, 1202, 1203, 1204, 1205
 1206, 1207, 1208, 1209, 1210, 1211, 1212, 1213, 1214, 1215, 1216, 1217, 1218, 1219, 1220, 1221
 1222, 1223, 1224, 1225, 1226, 1227, 1228, 1229, 1230, 1231, 1232, 1233, 1234, 1235, 1236, 1237
 1238, 1239, 1240, 1241, 1242, 1243, 1244, 1245, 1246, 1247, 1248, 1249, 1250, 1251, 1252, 1253
 1254, 1255, 1256, 1257, 1258, 1259, 1260, 1261, 1262, 1263, 1264, 1265, 1266, 1267, 1268, 1269
 1270, 1271, 1272, 1273, 1274, 1275, 1276, 1277, 1278, 1279, 1280, 1281, 1282, 1283, 1284, 1285
 1286, 1287, 1288, 1289, 1290, 1291, 1292, 1293, 1294, 1295, 1296, 1297, 1298, 1299, 1300, 1301
 1302, 1303, 1304, 1305, 1306, 1307, 1308, 1309, 1310, 1311, 1312, 1313, 1314, 1315, 1316, 1317
 1318, 1319, 1320, 1321, 1322, 1323, 1324, 1325, 1326, 1327, 1328, 1329, 1330, 1331, 1332, 1333
 1334, 1335, 1336, 1337, 1338, 1339, 1340, 1341, 1342, 1343, 1344, 1345, 1346, 1347, 1348, 1349
 1350, 1351, 1352, 1353, 1354, 1355, 1356, 1357, 1358, 1359, 1360, 1361, 1362, 1363, 1364, 1365
 1366, 1367, 1368, 1369, 1370, 1371, 1372, 1373, 1374, 1375, 1376, 1377, 1378, 1379, 1380, 1381
 1382, 1383, 1384, 1385, 1386, 1387, 1388, 1389, 1390, 1391, 1392, 1393, 1394, 1395, 1396, 1397
 1398, 1399, 1400, 1401, 1402, 1403, 1404, 1405, 1406, 1407, 1408, 1409, 1410, 1411, 1412, 1413
 1414, 1415, 1416, 1417, 1418, 1419, 1420, 1421, 1422, 1423, 1424, 1425, 1426, 1427, 1428, 1429
 1430, 1431, 1432, 1433, 1434, 1435, 1436, 1437, 1438, 1439, 1440, 1441, 1442, 1443, 1444, 1445
 1446, 1447, 1448, 1449, 1450, 1451, 1452, 1453, 1454, 1455, 1456, 1457, 1458, 1459, 1460, 1461
 1462, 1463, 1464, 1465, 1466, 1467, 1468, 1469, 1470, 1471, 1472, 1473, 1474, 1475, 1476, 1477
 1478, 1479, 1480, 1481, 1482, 1483, 1484, 1485, 1486, 1487, 1488, 1489, 1490, 1491, 1492, 1493
 1494, 1495, 1496, 1497, 1498, 1499, 1500, 1501, 1502, 1503, 1504, 1505, 1506, 1507, 1508, 1509
** ... 43 like lines cut
*Elset, elset=Interface, generate
 18589,  19084,      1
*Nset, nset=All, generate
     1,  35903,      1
*Elset, elset=All, generate
     1,  35631,      1
** Section: SECTHeat
*Solid Section, elset=All, material=MATHeat
,
*End Part
**  
**
** ASSEMBLY
**
*Assembly, name=Assembly
**  
*Instance, name=Part-1-1, part=Part-1
*End Instance
**  
*End Assembly
** 
** MATERIALS
** 
*Material, name=MATHeat
*Conductivity
1.,
*Depvar
2,
*Heat Generation
*Initial Conditions, Type=Solution
Part-1-1.All, 0.250, 0.0
** 
** PREDEFINED FIELDS
** 
** Name: Predefined Field-1   Type: Temperature
*Initial Conditions, type=TEMPERATURE
Part-1-1.All, 0.0
** ----------------------------------------------------------------
** 
** STEP: InterfaceGeneration
** 
*Step, name=InterfaceGeneration, nlgeom=NO
*Heat Transfer, steady state, deltmx=0.
0.1, 1.0, 0.1, 0.1 
** 
** BOUNDARY CONDITIONS
** 
** Name: InterfaceGrowth Type: Temperature
*Boundary
Part-1-1.Interface, 11, 11, 1.
** 
** OUTPUT REQUESTS
** 
*Restart, write, frequency=0
** 
** FIELD OUTPUT: F-Output-1
** 
*Output, field
*Node Output
NT, 
*Element Output, directions=YES
SDV, 
*Output, history, frequency=0
*End Step
