**************************************************** 
** Simple example of the functioning of the control
** algorithm of Segurado and Llorca (2004). If using
** this code for research or industrial purposes, 
** please cite their work and the following paper:
**
** E. Martínez-Pañeda, S. del Busto, C. Betegón. 
** Non-local plasticity effects on notch fracture 
** mechanics. Theoretical and Applied Fracture 
** Mechanics 92, pp. 276-287 (2017)
** doi:10.1016/j.tafmec.2017.09.007
**
****************************************************
*Heading
** Job name: Job-2 Model name: Standard
** Generated by: Abaqus/CAE 6.12-1
*Preprint, echo=NO, model=NO, history=NO, contact=NO
**
** PARTS
**
*Part, name=Part-1
*End Part
**  
**
** ASSEMBLY
**
*Assembly, name=Assembly
**  
*Instance, name=Part-1-1, part=Part-1
*Node
      1,           9.,           0.
      2,           9., 0.0335361771
      3,           9., 0.0737948418
      4,           9.,  0.122123562
      5,           9.,  0.180140004
      6,           9.,  0.249786139
      7,           9.,  0.333393186
      8,           9.,   0.43375966
      9,           9.,  0.554245114
     10,           9.,  0.698882461
     11,           9.,  0.872513056
     12,           9.,   1.08094883
     13,           9.,   1.33116651
     14,           9.,   1.63154161
     15,           9.,   1.99212825
     16,           9.,   2.42499638
     17,           9.,   2.94463515
     18,           9.,   3.56843781
     19,           9.,   4.31728506
     20,           9.,   5.21624231
** ... 962 like lines cut
*Element, type=CPE4
  1,   1,   2,  33,  32
  2,   2,   3,  34,  33
  3,   3,   4,  35,  34
  4,   4,   5,  36,  35
  5,   5,   6,  37,  36
  6,   6,   7,  38,  37
  7,   7,   8,  39,  38
  8,   8,   9,  40,  39
  9,   9,  10,  41,  40
 10,  10,  11,  42,  41
 11,  11,  12,  43,  42
 12,  12,  13,  44,  43
 13,  13,  14,  45,  44
 14,  14,  15,  46,  45
 15,  15,  16,  47,  46
 16,  16,  17,  48,  47
 17,  17,  18,  49,  48
 18,  18,  19,  50,  49
 19,  19,  20,  51,  50
 20,  20,  21,  52,  51
** ... 880 like lines cut
*Element, type=COH2D4, ELSET=COHE
901,962,963,590,621
902,963,964,559,590
903,964,965,528,559
904,965,966,497,528
905,966,967,466,497
906,967,968,435,466
907,968,969,404,435
908,969,970,373,404
909,970,971,342,373
910,971,972,311,342
911,972,973,280,311
912,973,974,249,280
913,974,975,218,249
914,975,976,187,218
915,976,977,156,187
916,977,978,125,156
917,978,979,94,125
918,979,980,63,94
919,980,981,32,63
920,981,982,1,32
**Define manually the control node
*NODE,NSET=NodeC
983,0.,0.  
**Definition of the first auxiliary element following Abaqus convention.
*USER ELEMENT,NODES=2,TYPE=U1,LINEAR,UNSYMM
2
*MATRIX,TYPE=STIFFNESS
1.e-10,1
0.0,1.e-10
**Definition of the second auxiliary element following Abaqus convention.
*USER ELEMENT,NODES=2,TYPE=U2,LINEAR,UNSYMM
2
*MATRIX,TYPE=STIFFNESS
1.e-10,0.0
1.0,1.e-10
**List of control elements
*ELEMENT,TYPE=U1,ELSET=control
921,621,983
922,590,983
923,559,983
924,528,983
925,497,983
926,466,983
927,435,983
928,404,983
929,373,983
930,342,983
931,311,983
932,280,983
933,249,983
934,218,983
935,187,983
936,156,983
937,125,983
938,94,983
939,63,983
940,32,983
941,1,983
**2nd axiliary element
*ELEMENT,TYPE=U2,ELSET=control
942,961,983
*UEL PROPERTY,ELSET=control 
*Nset, nset=Set-1, generate
   1,  961,    1
*Elset, elset=Set-1, generate
   1,  900,    1
** Section: Section-1
*Solid Section, elset=Set-1, material=Bulk
,
** Section: Cohesive section
*Cohesive Section, elset=COHE, material=Cohesive, response=TRACTION SEPARATION
, 
*End Instance
**  
*Nset, nset=BottomRight, instance=Part-1-1
 1,
*Nset, nset=BottomUncracked, instance=Part-1-1
962,963,964,965,966,967,968,969,970,971,972,973
974,975,976,977,978,979,980,981,982
*Nset, nset=N1c, instance=Part-1-1
962,
*Nset, nset=N2c, instance=Part-1-1
963,
*Nset, nset=N3c, instance=Part-1-1
964,
*Nset, nset=N4c, instance=Part-1-1
965,
*Nset, nset=N5c, instance=Part-1-1
966,
*Nset, nset=N6c, instance=Part-1-1
967,
*Nset, nset=N7c, instance=Part-1-1
968,
*Nset, nset=N8c, instance=Part-1-1
969,
*Nset, nset=N9c, instance=Part-1-1
970,
*Nset, nset=N10c, instance=Part-1-1
971,
*Nset, nset=N11c, instance=Part-1-1
972,
*Nset, nset=N12c, instance=Part-1-1
973,
*Nset, nset=N13c, instance=Part-1-1
974,
*Nset, nset=N14c, instance=Part-1-1
975,
*Nset, nset=N15c, instance=Part-1-1
976,
*Nset, nset=N16c, instance=Part-1-1
977,
*Nset, nset=N17c, instance=Part-1-1
978,
*Nset, nset=N18c, instance=Part-1-1
979,
*Nset, nset=N19c, instance=Part-1-1
980,
*Nset, nset=N20c, instance=Part-1-1
981,
*Nset, nset=N21c, instance=Part-1-1
982,
*Nset, nset=N1, instance=Part-1-1
621,
*Nset, nset=N2, instance=Part-1-1
590,
*Nset, nset=N3, instance=Part-1-1
559,
*Nset, nset=N4, instance=Part-1-1
528,
*Nset, nset=N5, instance=Part-1-1
497,
*Nset, nset=N6, instance=Part-1-1
466,
*Nset, nset=N7, instance=Part-1-1
435,
*Nset, nset=N8, instance=Part-1-1
404,
*Nset, nset=N9, instance=Part-1-1
373,
*Nset, nset=N10, instance=Part-1-1
342,
*Nset, nset=N11, instance=Part-1-1
311,
*Nset, nset=N12, instance=Part-1-1
280,
*Nset, nset=N13, instance=Part-1-1
249,
*Nset, nset=N14, instance=Part-1-1
218,
*Nset, nset=N15, instance=Part-1-1
187,
*Nset, nset=N16, instance=Part-1-1
156,
*Nset, nset=N17, instance=Part-1-1
125,
*Nset, nset=N18, instance=Part-1-1
94,
*Nset, nset=N19, instance=Part-1-1
63,
*Nset, nset=N20, instance=Part-1-1
32,
*Nset, nset=N21, instance=Part-1-1
1,
*Nset, nset=N_L, instance=Part-1-1
 961,
*Nset, nset=N_1, instance=Part-1-1
 621,
*Nset, nset=N_C, instance=Part-1-1
 983,  
*Nset, nset=Ntop, instance=Part-1-1, generate
  31,  930,   31
** Constraint: Constraint-1
*Equation
2
N1c, 1, 1.
N1, 1, -1.  
*Equation
2
N2c, 1, 1.
N2, 1, -1.  
*Equation
2
N3c, 1, 1.
N3, 1, -1.  
*Equation
2
N4c, 1, 1.
N4, 1, -1.  
*Equation
2
N5c, 1, 1.
N5, 1, -1.  
*Equation
2
N6c, 1, 1.
N6, 1, -1.  
*Equation
2
N7c, 1, 1.
N7, 1, -1.  
*Equation
2
N8c, 1, 1.
N8, 1, -1.  
*Equation
2
N9c, 1, 1.
N9, 1, -1.  
*Equation
2
N10c, 1, 1.
N10, 1, -1.  
*Equation
2
N11c, 1, 1.
N11, 1, -1.  
*Equation
2
N12c, 1, 1.
N12, 1, -1.  
*Equation
2
N13c, 1, 1.
N13, 1, -1. 
*Equation
2
N14c, 1, 1.
N14, 1, -1.
*Equation
2 
N15c, 1, 1.
N15, 1, -1.   
*Equation
2 
N16c, 1, 1.
N16, 1, -1. 
*Equation
2 
N17c, 1, 1.
N17, 1, -1.  
*Equation
2 
N18c, 1, 1.
N18, 1, -1.  
*Equation
2 
N19c, 1, 1.
N19, 1, -1.  
*Equation
2 
N20c, 1, 1.
N20, 1, -1. 
*Equation
2 
N21c, 1, 1.
N21, 1, -1. 
** Constraint: Constraint-2
*Equation
2
Ntop, 2, 1.
N_L, 2, -1.
*End Assembly
** 
** MATERIALS
** 
*Material, name=Bulk
*Elastic
200000., 0.3
*Material, name=Cohesive
*Damage Initiation, criterion=MAXS
600.,600.,600.
*Damage Evolution, type=ENERGY
 1.,
*Elastic, type=TRACTION
 2e+08, 2e+08, 2e+08
** 
** BOUNDARY CONDITIONS
** 
** Name: RigidBody Type: Displacement/Rotation
*Boundary
BottomRight, 1, 1
** Name: U2bottom Type: Displacement/Rotation
*Boundary
BottomUncracked, 2, 2
** ----------------------------------------------------------------
** 
** STEP: Step-1
** 
*Step, name=Step-1, inc=10000, unsymm=YES
*Static
0.01, 1., 1e-25, 0.01
** 
** BOUNDARY CONDITIONS
** 
** Name: Utop Type: Displacement/Rotation
** Precribe the force in the control node / crack tip opening displacement
*CLOAD
N_C,2,0.06
** 
** OUTPUT REQUESTS
** 
*Restart, write, frequency=0
** 
** FIELD OUTPUT: F-Output-1
** 
*Output, field
*Node Output
CF, RF, U
*Element Output, directions=YES
DMICRT, LE, PE, PEEQ, PEMAG, S, SDEG, STATUS
** 
** HISTORY OUTPUT: RF2
** 
*Output, history
*Node Output, nset=BottomUncracked
RF2, 
** 
** HISTORY OUTPUT: U2
** 
*Node Output, nset=N_L
U2, 
*End Step
