*NODE
         1,  2.8577783104597,  31.980710915889           
         2,  2.783215094528 ,  32.04669660983            
         3,  2.7088952748626,  32.113290151015           
         4,  2.6345039904015,  32.180474492574           
         5,  2.5588904031637,  32.247085893691           
         6,  2.4813269035297,  32.311315774782           
         7,  2.40364875163  ,  32.374574506457           
         8,  2.3265008800466,  32.438376922945           
         9,  2.2493698508778,  32.502723023167           
        10,  2.1717239264632,  32.567162047451           
        11,  2.093486870308 ,  32.631256160945           
        12,  2.0147200891786,  32.694859251988           
        13,  1.9356991294323,  32.757988228085           
        14,  1.8566929443547,  32.820871585408           
        15,  1.777959227204 ,  32.883717206358           
        16,  1.6998069546983,  32.946681768398           
        17,  1.6226450919194,  33.010074879315           
        18,  1.5471172490848,  33.074402548472           
        19,  1.473540186638 ,  33.14042887582            
        20,  1.4016678794492,  33.208566826627           
** ... 7968 like lines cut
************************************************* 
*User element, nodes=4, type=U1, properties=3, coordinates=2, var=44,
   INTEGRATION=4, TENSOR=PSTRAIN
1,2
1,3   
*************************************************
*ELEMENT, TYPE=U1, ELSET=SOLID
         1,      7378,      7377,      7366,      7367
         2,      7377,      7376,      7365,      7366
         3,      7376,      7375,      7364,      7365
         4,      7375,      7374,      7363,      7364
         5,      7374,      7373,      7362,      7363
         6,      7373,      7372,      7361,      7362
         7,      7369,      7370,      7359,      7358
         8,      7370,      7368,      7357,      7359
         9,      7368,      7367,      7356,      7357
        10,      7367,      7366,      7355,      7356
        11,      7366,      7365,      7354,      7355
        12,      7365,      7364,      7353,      7354
        13,      7364,      7363,      7352,      7353
        14,      7359,      7357,      7351,      7350
        15,      7357,      7356,      7349,      7351
        16,      7356,      7355,      7348,      7349
        17,      7355,      7354,      7347,      7348
        18,      7354,      7353,      7346,      7347
        19,      7353,      7352,      7345,      7346
        20,      7363,      7362,      7344,      7352
** ... 7854 like lines cut
*************************************************
*UEL PROPERTY, ELSET=SOLID, MATERIAL=Material-1
0.2, 22.5, 0
**l,Gc,FlagSolution (0-mono, 1-stag)
*************************************************
*Element, type=CPE4, elset=Visualization
      7875,      7378,      7377,      7366,      7367
      7876,      7377,      7376,      7365,      7366
      7877,      7376,      7375,      7364,      7365
      7878,      7375,      7374,      7363,      7364
      7879,      7374,      7373,      7362,      7363
      7880,      7373,      7372,      7361,      7362
      7881,      7369,      7370,      7359,      7358
      7882,      7370,      7368,      7357,      7359
      7883,      7368,      7367,      7356,      7357
      7884,      7367,      7366,      7355,      7356
      7885,      7366,      7365,      7354,      7355
      7886,      7365,      7364,      7353,      7354
      7887,      7364,      7363,      7352,      7353
      7888,      7359,      7357,      7351,      7350
      7889,      7357,      7356,      7349,      7351
      7890,      7356,      7355,      7348,      7349
      7891,      7355,      7354,      7347,      7348
      7892,      7354,      7353,      7346,      7347
      7893,      7353,      7352,      7345,      7346
      7894,      7363,      7362,      7344,      7352
** ... 7854 like lines cut
*NSET, NSET=TOP
      6016,      6017,      6021,      6022,      6164,      6165,      6177,      6183,
      6184,      6185
*NSET, NSET=BOTTOM
      6354,      6369,      6370,      6371,      6496,      6497,      6520,      6523,
      6526,      6527
*Nset, nset=Full, generate
     1,  7988,      1 
** Section: Section-1
*Solid Section, elset=Visualization, material=Material-2
,
** 
** MATERIALS
** 
*Material, name=Material-1
*elastic
215960.,0.3
*plastic,hardening=combined,datatype=parameters,numberbackstresses=1
465.,23554.,139.
*cyclichardening,parameters
465.,55.,2.38
*Material, name=Material-2
*Depvar
     11,
1, S11, S11
2, S22, S22
3, S33, S33
4, S12, S12
5, E11, E11
6, E22, E22
7, E33, E33
8, E12, E12
9, PHI, PHI
10, H, H
11, PSI, PSI
*User Material, constants=0
*************************************************************** 
*Step, name=Step-1, nlgeom=NO, inc=1000000
*Static, direct
0.0001, 1., 
*Solution Technique, type=QUASI-NEWTON, reform kernel=25
*Boundary
bottom,1,2,0.0
top, 2, 2, 3.0
top, 1, 1, 0.0
** 
** CONTROLS
** 
*Controls, reset
*Controls, parameters=time incrementation
25000, 25000, 25000, 25000, 25000, , , , , , 
*OUTPUT, history, frequency=10
*Node Output, NSET=bottom 
RF2                 
*OUTPUT, FIELD, frequency=100
*Node Output
U
*element output
S,E,SDV
*END STEP
