*Heading
** Job name: PhaseFieldSCC-CPER8T-k0005-Dis2 Model name: PhaseFieldSCC-CPER8T-k0005-Dis2
** Generated by: Abaqus/CAE 2022
*Preprint, echo=NO, model=NO, history=NO, contact=NO
**
** PARTS
**
*Part, name=Part-1
*Node
      1,           0.,  0.129999995
      2,           0., 0.0850000009
      3, 0.0250000004, 0.0850000009
      4, 0.0250000004,  0.150000006
      5, 0.00999999978,  0.150000006
      6, -0.0250000004,  0.150000006
      7, -0.0250000004, 0.0850000009
      8, -0.00999999978,  0.150000006
      9, -0.150000006,  0.150000006
     10, -0.150000006,           0.
     11,  0.150000006,           0.
     12,  0.150000006,  0.150000006
     13,           0.,  0.128999993
     14,           0.,  0.128000006
     15,           0.,  0.127000004
     16,           0.,  0.126000002
     17,           0.,        0.125
     18,           0.,  0.123999998
     19,           0.,  0.123000003
     20,           0.,  0.122000001
** ... 14486 like lines cut
*Element, type=CPE8RT
   1,  399, 1512, 1509,  996, 4860, 4861, 4862, 4863
   2,  560, 1090,  584,  671, 4864, 4865, 4866, 4867
   3,  564, 1134,  529, 1059, 4868, 4869, 4870, 4871
   4,  560,  104,  105, 1090, 4872, 4873, 4874, 4864
   5, 1480, 1474,  405, 1423, 4875, 4876, 4877, 4878
   6,  861,  879, 1474, 1480, 4879, 4880, 4875, 4881
   7, 1009, 1004,  390, 1024, 4882, 4883, 4884, 4885
   8, 1470, 1030, 1482,  386, 4886, 4887, 4888, 4889
   9, 1426, 1322,  795, 1318, 4890, 4891, 4892, 4893
  10,  658, 1219, 1291,  752, 4894, 4895, 4896, 4897
  11,  635,  179,  180,  365, 4898, 4899, 4900, 4901
  12,  462,  916, 1440,  987, 4902, 4903, 4904, 4905
  13,  935,  999, 1405, 1374, 4906, 4907, 4908, 4909
  14, 1276,  812, 1198,  648, 4910, 4911, 4912, 4913
  15,  588,  513,  688, 1106, 4914, 4915, 4916, 4917
  16, 1165, 1195,  717, 1105, 4918, 4919, 4920, 4921
  17,  511,   57,   58,  362, 4922, 4923, 4924, 4925
  18,  362,  506,  608,  548, 4926, 4927, 4928, 4929
  19,  548,  605,  463, 1104, 4930, 4931, 4932, 4933
  20,  804,  460,  765,  756, 4934, 4935, 4936, 4937
** ... 4769 like lines cut
*Nset, nset=Set-1, generate
     1,  14506,      1
*Elset, elset=Set-1, generate
    1,  4789,     1
** Section: Section-1
*Solid Section, elset=Set-1, material=Material-1
,
*End Part
**  
*Part, name=Part-1-Copy
*Node
      1,           0.,  0.129999995
      2,           0., 0.0850000009
      3, 0.0250000004, 0.0850000009
      4, 0.0250000004,  0.150000006
      5, 0.00999999978,  0.150000006
      6, -0.0250000004,  0.150000006
      7, -0.0250000004, 0.0850000009
      8, -0.00999999978,  0.150000006
      9, -0.150000006,  0.150000006
     10, -0.150000006,           0.
     11,  0.150000006,           0.
     12,  0.150000006,  0.150000006
     13,           0.,  0.128999993
     14,           0.,  0.128000006
     15,           0.,  0.127000004
     16,           0.,  0.126000002
     17,           0.,        0.125
     18,           0.,  0.123999998
     19,           0.,  0.123000003
     20,           0.,  0.122000001
** ... 14486 like lines cut
*Element, type=CPE8RT
   1,  399, 1512, 1509,  996, 4860, 4861, 4862, 4863
   2,  560, 1090,  584,  671, 4864, 4865, 4866, 4867
   3,  564, 1134,  529, 1059, 4868, 4869, 4870, 4871
   4,  560,  104,  105, 1090, 4872, 4873, 4874, 4864
   5, 1480, 1474,  405, 1423, 4875, 4876, 4877, 4878
   6,  861,  879, 1474, 1480, 4879, 4880, 4875, 4881
   7, 1009, 1004,  390, 1024, 4882, 4883, 4884, 4885
   8, 1470, 1030, 1482,  386, 4886, 4887, 4888, 4889
   9, 1426, 1322,  795, 1318, 4890, 4891, 4892, 4893
  10,  658, 1219, 1291,  752, 4894, 4895, 4896, 4897
  11,  635,  179,  180,  365, 4898, 4899, 4900, 4901
  12,  462,  916, 1440,  987, 4902, 4903, 4904, 4905
  13,  935,  999, 1405, 1374, 4906, 4907, 4908, 4909
  14, 1276,  812, 1198,  648, 4910, 4911, 4912, 4913
  15,  588,  513,  688, 1106, 4914, 4915, 4916, 4917
  16, 1165, 1195,  717, 1105, 4918, 4919, 4920, 4921
  17,  511,   57,   58,  362, 4922, 4923, 4924, 4925
  18,  362,  506,  608,  548, 4926, 4927, 4928, 4929
  19,  548,  605,  463, 1104, 4930, 4931, 4932, 4933
  20,  804,  460,  765,  756, 4934, 4935, 4936, 4937
** ... 4769 like lines cut
*Nset, nset=Set-1, generate
     1,  14506,      1
*Elset, elset=Set-1, generate
    1,  4789,     1
** Section: Section-2
*Solid Section, elset=Set-1, material=Material-2
,
*End Part
**  
**
** ASSEMBLY
**
*Assembly, name=Assembly
**  
*Instance, name=Part-1-1, part=Part-1
*End Instance
**  
*Instance, name=Part-1-Copy-1, part=Part-1-Copy
        0.33,           0.,           0.
*End Instance
**  
*Nset, nset=Set-1, instance=Part-1-1, generate
     1,  14506,      1
*Elset, elset=Set-1, instance=Part-1-1, generate
    1,  4789,     1
*Nset, nset=Set-3, instance=Part-1-1
    11,    12,   344,   345,   346,   347,   348,   349,   350,   351,   352, 10208, 10212, 10216, 10227, 10231
 10232, 10371, 10441, 14344, 14372
*Elset, elset=Set-3, instance=Part-1-1
 2543, 2544, 2546, 2548, 2549, 2550, 2594, 2618, 4430, 4465
*Nset, nset=Set-4, instance=Part-1-1
     9,    10,   316,   317,   318,   319,   320,   321,   322,   323,   324,  9994, 10016, 10019, 10049, 10067
 10086, 10115, 10117, 10439, 14337
*Elset, elset=Set-4, instance=Part-1-1
 2479, 2486, 2487, 2495, 2500, 2506, 2514, 2515, 2617, 4424
*Nset, nset=Set-5, instance=Part-1-1
    1,    5,    8,  159,  160,  161,  162,  163,  164,  165,  166,  167,  168,  169,  170,  171
  172,  173,  174,  175,  176,  177,  178,  179,  180,  181,  270,  271,  272,  273,  274,  275
  276,  277,  278,  279,  280,  281,  282,  283,  284,  285,  286,  287,  288,  289,  290,  291
  292, 4899, 5215, 5275, 5290, 5323, 5333, 5352, 6101, 6112, 6115, 6118, 6120, 6124, 6125, 6265
 6286, 6291, 6293, 6296, 6299, 6301, 7305, 7320, 7321, 7448, 7872, 7884, 7890, 7900, 7914, 7994
 8034, 8050, 8552, 8554, 8560, 8562, 8563, 8567, 8571, 8796, 8797, 8801, 8802, 8804, 8845, 8847
 8852,
*Elset, elset=Set-5, instance=Part-1-1
   11,   96,  112,  116,  124,  127,  132,  355,  359,  360,  361,  362,  363,  364,  432,  444
  446,  447,  448,  450,  451, 1005, 1021, 1022, 1247, 1361, 1365, 1366, 1369, 1373, 1394, 1406
 1412, 1566, 1567, 1568, 1569, 1570, 1571, 1572, 1684, 1685, 1686, 1687, 1688, 1708, 1709, 1711
*Nset, nset=Set-7, instance=Part-1-Copy-1, generate
     1,  14506,      1
*Elset, elset=Set-7, instance=Part-1-Copy-1, generate
    1,  4789,     1
*Nset, nset=Set-8, instance=Part-1-Copy-1
    1,    5,    8,  159,  160,  161,  162,  163,  164,  165,  166,  167,  168,  169,  170,  171
  172,  173,  174,  175,  176,  177,  178,  179,  180,  181,  270,  271,  272,  273,  274,  275
  276,  277,  278,  279,  280,  281,  282,  283,  284,  285,  286,  287,  288,  289,  290,  291
  292, 4899, 5215, 5275, 5290, 5323, 5333, 5352, 6101, 6112, 6115, 6118, 6120, 6124, 6125, 6265
 6286, 6291, 6293, 6296, 6299, 6301, 7305, 7320, 7321, 7448, 7872, 7884, 7890, 7900, 7914, 7994
 8034, 8050, 8552, 8554, 8560, 8562, 8563, 8567, 8571, 8796, 8797, 8801, 8802, 8804, 8845, 8847
 8852,
*Elset, elset=Set-8, instance=Part-1-Copy-1
   11,   96,  112,  116,  124,  127,  132,  355,  359,  360,  361,  362,  363,  364,  432,  444
  446,  447,  448,  450,  451, 1005, 1021, 1022, 1247, 1361, 1365, 1366, 1369, 1373, 1394, 1406
 1412, 1566, 1567, 1568, 1569, 1570, 1571, 1572, 1684, 1685, 1686, 1687, 1688, 1708, 1709, 1711
*Nset, nset=Set-9, instance=Part-1-1
 10,
*Nset, nset=Set-10, instance=Part-1-1
 9,
*Nset, nset=Set-11, instance=Part-1-1
 12,
*End Assembly
*Amplitude, name=Amp-1
             0.,              1.,       10000000.,              1.
*Amplitude, name=Amp-2
             0.,              1.,           0.005,              0.,      100000000.,              0.
** 
** MATERIALS
** 
*Material, name=Material-1
*Density
1.,
*Depvar
     24,
*User Material, constants=12, type=THERMAL
190000.,     0.3,    520.,   0.067, 0.00085,   0.001, 5.1e-05,    35.3
    53.5,  0.0005,   0.003,     10.
*User Material, constants=12, type=MECHANICAL
190000.,     0.3,    520.,   0.067, 0.00085,   0.001, 5.1e-05,    35.3
    53.5,  0.0005,   0.003,     10.
*Material, name=Material-2
*Density
1.,
*User Material, constants=1, type=THERMAL
 0.00085,
*User Material, constants=1, type=MECHANICAL
1.,
** 
** BOUNDARY CONDITIONS
** 
** Name: BC-7 Type: Displacement/Rotation
*Boundary
Set-11, 2, 2
** ----------------------------------------------------------------
** 
** STEP: Step-1
** 
*Step, name=Step-1, nlgeom=NO, inc=1, unsymm=NO
*Coupled Temperature-displacement, creep=none
1., 1., 
*Solution Technique, type=SEPARATED
** 
** BOUNDARY CONDITIONS
** 
** Name: Ini-c-P2 Type: Temperature
*Boundary, amplitude=Amp-1
Set-7, 11, 11, 1.
** Name: Ini-phi-P1 Type: Temperature
*Boundary, amplitude=Amp-1
Set-1, 11, 11, 1.
** 
** CONTROLS
** 
*Controls, reset
*Controls, analysis=discontinuous
** 
** OUTPUT REQUESTS
** 
*Restart, write, frequency=0
** 
** FIELD OUTPUT: F-Output-1
** 
*Output, field, frequency=200
*Node Output
NT, RFL
*Element Output, directions=YES
HFL, S, SDV, TEMP
*Output, history, frequency=0
*End Step
** ----------------------------------------------------------------
** 
** STEP: Step-2
** 
*Step, name=Step-2, nlgeom=NO, inc=1, unsymm=NO
*Coupled Temperature-displacement, creep=none
1., 1., 
*Solution Technique, type=SEPARATED
** 
** BOUNDARY CONDITIONS
** 
** Name: BC-7 Type: Displacement/Rotation
*Boundary, op=NEW
Set-11, 2, 2
** Name: Ini-c-P2 Type: Temperature
*Boundary, op=NEW
** Name: Ini-phi-P1 Type: Temperature
*Boundary, op=NEW
** 
** OUTPUT REQUESTS
** 
*Restart, write, frequency=0
** 
** FIELD OUTPUT: F-Output-1
** 
*Output, field, frequency=200
*Node Output
NT, RFL
*Element Output, directions=YES
HFL, S, SDV, TEMP
*Output, history, frequency=0
*End Step
** ----------------------------------------------------------------
** 
** STEP: Step-3
** 
*Step, name=Step-3, nlgeom=NO, inc=1000000000, unsymm=NO
*Coupled Temperature-displacement, creep=none, deltmx=1.
1e-05, 1., 1e-50, 0.1
*Solution Technique, type=SEPARATED
** 
** BOUNDARY CONDITIONS
** 
** Name: Left-Ux-P1 Type: Displacement/Rotation
*Boundary, amplitude=Amp-1
Set-4, 1, 1, -0.0002
** Name: Right-Ux-P1 Type: Displacement/Rotation
*Boundary, amplitude=Amp-1
Set-3, 1, 1, 0.0002
** 
** OUTPUT REQUESTS
** 
*Restart, write, frequency=0
** 
** FIELD OUTPUT: F-Output-1
** 
*Output, field, frequency=200
*Node Output
NT, RFL
*Element Output, directions=YES
HFL, S, SDV, TEMP
*Output, history, frequency=0
*End Step
** ----------------------------------------------------------------
** 
** STEP: Step-4
** 
*Step, name=Step-4, nlgeom=NO, inc=1000000000, unsymm=NO
*Coupled Temperature-displacement, creep=none, deltmx=1.
0.001, 900., 1e-10, 0.25
*Solution Technique, type=SEPARATED
** 
** BOUNDARY CONDITIONS
** 
** Name: Interface-P2 Type: Temperature
*Boundary, amplitude=Amp-2
Set-8, 11, 11, 1.
** Name: interface-P1 Type: Temperature
*Boundary, amplitude=Amp-2
Set-5, 11, 11, 1.
** 
** CONTROLS
** 
*Controls, reset
*Controls, parameters=field, field=global
0.1, 0.1, , , 0.5, , , 
**
** OUTPUT REQUESTS
** 
*Restart, write, frequency=0
** 
** FIELD OUTPUT: F-Output-1
** 
*Output, field, frequency=20
*Node Output
NT, RFL
*Element Output, directions=YES
HFL, S, SDV, TEMP
*Output, history, frequency=0
*End Step
