*Heading
** Job name: SquarePlate-UMATHT-PhaseField-Hydrogen-s-C05 Model name: SquarePlate-UMATHT-PhaseField-Hydrogen-s-C05
** Generated by: Abaqus/CAE 2022
*Preprint, echo=NO, model=NO, history=NO, contact=NO
**
** PARTS
**
*Part, name=Part-1
*End Part
**  
*Part, name=Part-1-Copy
*End Part
**  
**
** ASSEMBLY
**
*Assembly, name=Assembly
**  
*Instance, name=Part-1-1, part=Part-1
*Node
      1,           0.,          0.5
      2,          0.5,          0.5
      3,           1.,          0.5
      4,           1.,           1.
      5,           0.,           1.
      6,           0.,           0.
      7,           1.,           0.
      8, 0.0252730027,          0.5
      9, 0.0493649244,          0.5
     10, 0.0723309591,          0.5
     11, 0.0942237228,          0.5
     12,  0.115093373,          0.5
     13,  0.134987727,          0.5
     14,   0.15395236,          0.5
     15,  0.172030717,          0.5
     16,  0.189264208,          0.5
     17,  0.205692336,          0.5
     18,  0.221352741,          0.5
     19,  0.236281276,          0.5
     20,  0.250512153,          0.5
** ... 55508 like lines cut
*Element, type=CPE8T
   1,   420,  7378,  7102,   419, 18567, 18568, 18569, 18570
   2,  7102,  7378,  7066,   547, 18568, 18571, 18572, 18573
   3,  6949,   418,   419,  7102, 18574, 18575, 18569, 18576
   4,  6868,   417,   418,  6949, 18577, 18578, 18574, 18579
   5,   416,  6929,   626,   415, 18580, 18581, 18582, 18583
   6,  6853,   414,   415,   626, 18584, 18585, 18582, 18586
   7,   413,  6930,  6921,   412, 18587, 18588, 18589, 18590
   8,  6854,   411,   412,  6921, 18591, 18592, 18589, 18593
   9,  6867,   410,   411,  6854, 18594, 18595, 18591, 18596
  10,  6950,   408,   409,  6935, 18597, 18598, 18599, 18600
  11,  6866,   407,   408,  6950, 18601, 18602, 18597, 18603
  12,   406,  6931,   809,   405, 18604, 18605, 18606, 18607
  13,  6855,   404,   405,   809, 18608, 18609, 18606, 18610
  14,   402,   403,  6869,   849, 18611, 18612, 18613, 18614
  15,   401,     5,   402,   849, 18615, 18616, 18614, 18617
  16, 18565, 18564,  7066,  7378, 18618, 18619, 18571, 18620
  17, 18564, 18563,  6846,  7066, 18621, 18622, 18623, 18619
  18,   547,  7011,  7621,   573, 18624, 18625, 18626, 18627
  19,  6868,  6937,   600,  6929, 18628, 18629, 18630, 18631
  20,  7008,  7624,   600,   599, 18632, 18633, 18634, 18635
** ... 18377 like lines cut
*Nset, nset=Set-1, generate
     1,  55528,      1
*Elset, elset=Set-1, generate
     1,  18397,      1
** Section: Section-1
*Solid Section, elset=Set-1, material=Material-1
,
*End Instance
**  
*Instance, name=Part-1-Copy-1, part=Part-1-Copy
         1.1,           0.,           0.
*Node
      1,           0.,          0.5
      2,          0.5,          0.5
      3,           1.,          0.5
      4,           1.,           1.
      5,           0.,           1.
      6,           0.,           0.
      7,           1.,           0.
      8, 0.0252730027,          0.5
      9, 0.0493649244,          0.5
     10, 0.0723309591,          0.5
     11, 0.0942237228,          0.5
     12,  0.115093373,          0.5
     13,  0.134987727,          0.5
     14,   0.15395236,          0.5
     15,  0.172030717,          0.5
     16,  0.189264208,          0.5
     17,  0.205692336,          0.5
     18,  0.221352741,          0.5
     19,  0.236281276,          0.5
     20,  0.250512153,          0.5
** ... 55508 like lines cut
*Element, type=CPE8T
   1,   420,  7378,  7102,   419, 18567, 18568, 18569, 18570
   2,  7102,  7378,  7066,   547, 18568, 18571, 18572, 18573
   3,  6949,   418,   419,  7102, 18574, 18575, 18569, 18576
   4,  6868,   417,   418,  6949, 18577, 18578, 18574, 18579
   5,   416,  6929,   626,   415, 18580, 18581, 18582, 18583
   6,  6853,   414,   415,   626, 18584, 18585, 18582, 18586
   7,   413,  6930,  6921,   412, 18587, 18588, 18589, 18590
   8,  6854,   411,   412,  6921, 18591, 18592, 18589, 18593
   9,  6867,   410,   411,  6854, 18594, 18595, 18591, 18596
  10,  6950,   408,   409,  6935, 18597, 18598, 18599, 18600
  11,  6866,   407,   408,  6950, 18601, 18602, 18597, 18603
  12,   406,  6931,   809,   405, 18604, 18605, 18606, 18607
  13,  6855,   404,   405,   809, 18608, 18609, 18606, 18610
  14,   402,   403,  6869,   849, 18611, 18612, 18613, 18614
  15,   401,     5,   402,   849, 18615, 18616, 18614, 18617
  16, 18565, 18564,  7066,  7378, 18618, 18619, 18571, 18620
  17, 18564, 18563,  6846,  7066, 18621, 18622, 18623, 18619
  18,   547,  7011,  7621,   573, 18624, 18625, 18626, 18627
  19,  6868,  6937,   600,  6929, 18628, 18629, 18630, 18631
  20,  7008,  7624,   600,   599, 18632, 18633, 18634, 18635
** ... 18377 like lines cut
*Nset, nset=Set-1, generate
     1,  55528,      1
*Elset, elset=Set-1, generate
     1,  18397,      1
** Section: Section-2
*Solid Section, elset=Set-1, material=Material-2
,
*End Instance
**  
*Nset, nset=Set-1, instance=Part-1-1
     6,     7,   440,   441,   442,   443,   444,   445,   446,   447,   448,   449,   450,   451,   452,   453
   454,   455,   456,   457,   458,   459,   460,   461,   462,   463,   464,   465,   466,   467,   468,   469
   470,   471,   472,   473,   474,   475,   476,   477,   478, 37836, 37937, 37938, 38053, 38057, 38061, 38063
 38225, 38279, 38330, 38331, 38383, 38431, 38435, 38474, 38480, 38528, 38570, 38571, 38608, 38610, 38647, 38674
 38676, 38719, 38746, 38768, 38771, 38785, 38787, 38798, 38802, 38816, 38829, 38836, 40147, 40148, 40149, 40150
 54823,
*Elset, elset=Set-1, instance=Part-1-1
  9519,  9545,  9546,  9576,  9577,  9578,  9579,  9622,  9636,  9650,  9651,  9666,  9680,  9681,  9695,  9697
  9710,  9721,  9722,  9732,  9733,  9743,  9750,  9751,  9763,  9770,  9776,  9777,  9781,  9782,  9785,  9787
  9791,  9795,  9797, 10209, 10210, 10211, 10212, 17081
*Nset, nset=Set-2, instance=Part-1-1
 7,
*Nset, nset=Set-3, instance=Part-1-1
     4,     5,   363,   364,   365,   366,   367,   368,   369,   370,   371,   372,   373,   374,   375,   376
   377,   378,   379,   380,   381,   382,   383,   384,   385,   386,   387,   388,   389,   390,   391,   392
   393,   394,   395,   396,   397,   398,   399,   400,   401, 18615, 18674, 18675, 18726, 18777, 18780, 18827
 18882, 18935, 19017, 19026, 19118, 19169, 19212, 19247, 19248, 19290, 19584, 19608, 19625, 19642, 19650, 19653
 19661, 19663, 19719, 19723, 19775, 19831, 19889, 19891, 19940, 19986, 21141, 21142, 21143, 21145, 21147, 37254
 37255,
*Elset, elset=Set-3, instance=Part-1-1
   15,   30,   31,   45,   60,   61,   74,   89,  104,  125,  127,  151,  164,  176,  185,  186
  197,  273,  280,  285,  290,  293,  294,  297,  298,  313,  314,  328,  343,  358,  359,  372
  384,  756,  757,  758,  759,  760, 8389, 8390
*Nset, nset=Set-4, instance=Part-1-Copy-1, generate
     1,  55528,      1
*Elset, elset=Set-4, instance=Part-1-Copy-1, generate
     1,  18397,      1
*Nset, nset=Set-5, instance=Part-1-Copy-1
     1,     2,     3,     4,     5,     6,     7,     8,     9,    10,    11,    12,    13,    14,    15,    16
    17,    18,    19,    20,    21,    22,    23,    24,    25,    26,    27,    28,    29,    30,    31,    32
    33,    34,    35,    36,    37,    38,    39,    40,    41,    42,    43,    44,    45,    46,    47,    48
    49,    50,    51,    52,    53,    54,    55,    56,    57,    58,    59,    60,   310,   311,   312,   313
   314,   315,   316,   317,   318,   319,   320,   321,   322,   323,   324,   325,   326,   327,   328,   329
   330,   331,   332,   333,   334,   335,   336,   337,   338,   339,   340,   341,   342,   343,   344,   345
   346,   347,   348,   349,   350,   351,   352,   353,   354,   355,   356,   357,   358,   359,   360,   361
   362,   363,   364,   365,   366,   367,   368,   369,   370,   371,   372,   373,   374,   375,   376,   377
   378,   379,   380,   381,   382,   383,   384,   385,   386,   387,   388,   389,   390,   391,   392,   393
   394,   395,   396,   397,   398,   399,   400,   401,   402,   403,   404,   405,   406,   407,   408,   409
   410,   411,   412,   413,   414,   415,   416,   417,   418,   419,   420,   421,   422,   423,   424,   425
   426,   427,   428,   429,   430,   431,   432,   433,   434,   435,   436,   437,   438,   439,   440,   441
   442,   443,   444,   445,   446,   447,   448,   449,   450,   451,   452,   453,   454,   455,   456,   457
   458,   459,   460,   461,   462,   463,   464,   465,   466,   467,   468,   469,   470,   471,   472,   473
   474,   475,   476,   477,   478,   479,   480,   481,   482,   483,   484,   485,   486,   487,   488,   489
   490,   491,   492,   493,   494,   495,   496,   497,   498,   499,   500,   501,   502,   503,   504,   505
   506,   507,   508,   509,   510,   511,   512,   513,   514,   515,   516,   517,   518,   519,   520,   521
   522,   523,   524,   525,   526,   527,   528,   529,   530,   531, 18513, 18514, 18515, 18516, 18517, 18518
 18519, 18520, 18521, 18522, 18523, 18524, 18525, 18526, 18527, 18528, 18529, 18530, 18531, 18532, 18533, 18534
 18535, 18536, 18537, 18538, 18539, 18540, 18541, 18542, 18543, 18544, 18545, 18546, 18547, 18548, 18549, 18550
** ... 22 like lines cut
*Elset, elset=Set-5, instance=Part-1-Copy-1
     1,     3,     4,     5,     6,     7,     8,     9,    10,    11,    12,    13,    14,    15,    16,    17
    30,    31,    32,    45,    46,    60,    61,    62,    74,    75,    89,    91,    92,   104,   106,   107
   108,   109,   110,   113,   125,   127,   151,   164,   176,   185,   186,   197,   203,   205,   223,   232
   241,   250,   259,   268,   273,   280,   285,   286,   287,   290,   292,   293,   294,   296,   297,   298
   312,   313,   314,   327,   328,   342,   343,   358,   359,   372,   384,   656,   657,   658,   659,   660
   661,   662,   663,   664,   665,   666,   667,   668,   669,   670,   671,   672,   673,   674,   675,   676
   677,   678,   679,   680,   681,   682,   683,   685,   686,   687,   688,   689,   690,   720,   721,   722
   724,   725,   726,   727,   728,   729,   730,   731,   732,   733,   734,   735,   736,   737,   738,   739
   740,   741,   742,   743,   744,   745,   746,   747,   748,   749,   756,   757,   758,   759,   760,   761
   762,   763,   764,   765,   919,   920,   922,   924,   925,   930,   955,   966,  1015,  1148,  1215,  5469
  7982,  7989,  8213,  8389,  8390,  9519,  9521,  9534,  9545,  9546,  9561,  9562,  9563,  9576,  9577,  9578
  9579,  9591,  9610,  9622,  9624,  9636,  9637,  9650,  9651,  9652,  9666,  9667,  9668,  9680,  9681,  9683
  9686,  9688,  9693,  9695,  9696,  9697,  9710,  9721,  9722,  9732,  9733,  9743,  9750,  9751,  9763,  9770
  9776,  9777,  9781,  9782,  9785,  9787,  9791,  9795,  9797,  9799,  9822,  9823,  9833,  9842,  9850,  9858
  9864,  9869,  9874,  9878,  9881,  9883,  9888,  9897,  9903,  9910,  9932,  9988, 10032, 10056, 10074, 10108
 10144, 10170, 10171, 10172, 10173, 10174, 10175, 10176, 10177, 10178, 10179, 10180, 10181, 10182, 10183, 10184
 10185, 10186, 10187, 10188, 10189, 10190, 10191, 10192, 10193, 10194, 10195, 10196, 10197, 10198, 10199, 10200
 10201, 10202, 10203, 10204, 10205, 10206, 10207, 10208, 10209, 10210, 10211, 10212, 10213, 10220, 10221, 10222
 10223, 10224, 10225, 10226, 10227, 10228, 10229, 10230, 10231, 10232, 10233, 10234, 10235, 10236, 10237, 10238
 10239, 10240, 10241, 10242, 10243, 10244, 10245, 10246, 10247, 10248, 10249, 10399, 10400, 10402, 10407, 10408
 10438, 10450, 10601, 10606, 10785, 17003, 17008, 17081, 17196, 17324
*Nset, nset=Set-6, instance=Part-1-1
     1,     2,     8,     9,    10,    11,    12,    13,    14,    15,    16,    17,    18,    19,    20,    21
    22,    23,    24,    25,    26,    27,    28,    29,    30,    31,    32,    33,    34,    35,    36,    37
    38,    39,    40,    41,    42,    43,    44,    45,    46,    47,    48,    49,    50,    51,    52,    53
    54,    55,    56,    57,    58,    59,    60, 18513, 18514, 18515, 18516, 18517, 18518, 18519, 18520, 18521
 18522, 18523, 18524, 18525, 18526, 18527, 18528, 18529, 18530, 18531, 18532, 18533, 18534, 18535, 18536, 18537
 18538, 18539, 18540, 18541, 18542, 18543, 18544, 18545, 18546, 18547, 18548, 18549, 18550, 18551, 18552, 18553
 18554, 18555, 18556, 18557, 18558, 18559, 18560, 18561, 18562, 18563, 18564, 18565, 18566, 18618, 18621, 18677
 18727, 18783, 18829, 18890, 18894, 18942, 18946, 18950, 18954, 18958, 18970, 19715, 19771, 19827, 20842, 20844
 20846, 20848, 20849, 20851, 20853, 20855, 20857, 20859, 20862, 20864, 20867, 20870, 20872, 20874, 20877, 20879
 20882, 20885, 20887, 20890, 20893, 20895, 20898, 20901, 20904, 20907, 20914, 20917, 20920, 20922, 20925, 20927
 21652, 36839, 37105, 37894, 37996, 38000, 38004, 38111, 38185, 38233, 38283, 38333, 38387, 38388, 38440, 38478
 39177, 39212, 39235, 40057, 40058, 40059, 40061, 40063, 40065, 40067, 40069, 40071, 40073, 40076, 40079, 40081
 40084, 40087, 40090, 40092, 40095, 40097, 40100, 40103, 40106, 40108, 40111, 40113, 40116, 40120, 40123, 40126
 40129, 40132, 40135, 40137, 40626, 40628, 40690, 40718, 54735
*Elset, elset=Set-6, instance=Part-1-1
    16,    17,    32,    46,    62,    75,    91,    92,   106,   107,   108,   109,   110,   113,   312,   327
   342,   656,   657,   658,   659,   660,   661,   662,   663,   664,   665,   666,   667,   668,   669,   670
   671,   672,   673,   674,   675,   676,   677,   678,   679,   680,   681,   682,   683,   685,   686,   687
   688,   689,   690,   930,  7989,  8213,  9534,  9561,  9562,  9563,  9591,  9610,  9624,  9637,  9652,  9667
  9668,  9683,  9696,  9888,  9897,  9903, 10170, 10171, 10172, 10173, 10174, 10175, 10176, 10177, 10178, 10179
 10180, 10181, 10182, 10183, 10184, 10185, 10186, 10187, 10188, 10189, 10190, 10191, 10192, 10193, 10194, 10195
 10196, 10197, 10198, 10199, 10200, 10201, 10202, 10407, 10408, 10438, 10450, 17003
*Nset, nset=Set-7, instance=Part-1-1
     1,     2,     8,     9,    10,    11,    12,    13,    14,    15,    16,    17,    18,    19,    20,    21
    22,    23,    24,    25,    26,    27,    28,    29,    30,    31,    32,    33,    34,    35,    36,    37
    38,    39,    40,    41,    42,    43,    44,    45,    46,    47,    48,    49,    50,    51,    52,    53
    54,    55,    56,    57,    58,    59,    60, 18513, 18514, 18515, 18516, 18517, 18518, 18519, 18520, 18521
 18522, 18523, 18524, 18525, 18526, 18527, 18528, 18529, 18530, 18531, 18532, 18533, 18534, 18535, 18536, 18537
 18538, 18539, 18540, 18541, 18542, 18543, 18544, 18545, 18546, 18547, 18548, 18549, 18550, 18551, 18552, 18553
 18554, 18555, 18556, 18557, 18558, 18559, 18560, 18561, 18562, 18563, 18564, 18565, 18566, 18618, 18621, 18677
 18727, 18783, 18829, 18890, 18894, 18942, 18946, 18950, 18954, 18958, 18970, 19715, 19771, 19827, 20842, 20844
 20846, 20848, 20849, 20851, 20853, 20855, 20857, 20859, 20862, 20864, 20867, 20870, 20872, 20874, 20877, 20879
 20882, 20885, 20887, 20890, 20893, 20895, 20898, 20901, 20904, 20907, 20914, 20917, 20920, 20922, 20925, 20927
 21652, 36839, 37105, 37894, 37996, 38000, 38004, 38111, 38185, 38233, 38283, 38333, 38387, 38388, 38440, 38478
 39177, 39212, 39235, 40057, 40058, 40059, 40061, 40063, 40065, 40067, 40069, 40071, 40073, 40076, 40079, 40081
 40084, 40087, 40090, 40092, 40095, 40097, 40100, 40103, 40106, 40108, 40111, 40113, 40116, 40120, 40123, 40126
 40129, 40132, 40135, 40137, 40626, 40628, 40690, 40718, 54735
*Elset, elset=Set-7, instance=Part-1-1
    16,    17,    32,    46,    62,    75,    91,    92,   106,   107,   108,   109,   110,   113,   312,   327
   342,   656,   657,   658,   659,   660,   661,   662,   663,   664,   665,   666,   667,   668,   669,   670
   671,   672,   673,   674,   675,   676,   677,   678,   679,   680,   681,   682,   683,   685,   686,   687
   688,   689,   690,   930,  7989,  8213,  9534,  9561,  9562,  9563,  9591,  9610,  9624,  9637,  9652,  9667
  9668,  9683,  9696,  9888,  9897,  9903, 10170, 10171, 10172, 10173, 10174, 10175, 10176, 10177, 10178, 10179
 10180, 10181, 10182, 10183, 10184, 10185, 10186, 10187, 10188, 10189, 10190, 10191, 10192, 10193, 10194, 10195
 10196, 10197, 10198, 10199, 10200, 10201, 10202, 10407, 10408, 10438, 10450, 17003
*Nset, nset=Set-9, instance=Part-1-Copy-1
     1,     2,     8,     9,    10,    11,    12,    13,    14,    15,    16,    17,    18,    19,    20,    21
    22,    23,    24,    25,    26,    27,    28,    29,    30,    31,    32,    33,    34,    35,    36,    37
    38,    39,    40,    41,    42,    43,    44,    45,    46,    47,    48,    49,    50,    51,    52,    53
    54,    55,    56,    57,    58,    59,    60, 18513, 18514, 18515, 18516, 18517, 18518, 18519, 18520, 18521
 18522, 18523, 18524, 18525, 18526, 18527, 18528, 18529, 18530, 18531, 18532, 18533, 18534, 18535, 18536, 18537
 18538, 18539, 18540, 18541, 18542, 18543, 18544, 18545, 18546, 18547, 18548, 18549, 18550, 18551, 18552, 18553
 18554, 18555, 18556, 18557, 18558, 18559, 18560, 18561, 18562, 18563, 18564, 18565, 18566, 18618, 18621, 18677
 18727, 18783, 18829, 18890, 18894, 18942, 18946, 18950, 18954, 18958, 18970, 19715, 19771, 19827, 20842, 20844
 20846, 20848, 20849, 20851, 20853, 20855, 20857, 20859, 20862, 20864, 20867, 20870, 20872, 20874, 20877, 20879
 20882, 20885, 20887, 20890, 20893, 20895, 20898, 20901, 20904, 20907, 20914, 20917, 20920, 20922, 20925, 20927
 21652, 36839, 37105, 37894, 37996, 38000, 38004, 38111, 38185, 38233, 38283, 38333, 38387, 38388, 38440, 38478
 39177, 39212, 39235, 40057, 40058, 40059, 40061, 40063, 40065, 40067, 40069, 40071, 40073, 40076, 40079, 40081
 40084, 40087, 40090, 40092, 40095, 40097, 40100, 40103, 40106, 40108, 40111, 40113, 40116, 40120, 40123, 40126
 40129, 40132, 40135, 40137, 40626, 40628, 40690, 40718, 54735
*Elset, elset=Set-9, instance=Part-1-Copy-1
    16,    17,    32,    46,    62,    75,    91,    92,   106,   107,   108,   109,   110,   113,   312,   327
   342,   656,   657,   658,   659,   660,   661,   662,   663,   664,   665,   666,   667,   668,   669,   670
   671,   672,   673,   674,   675,   676,   677,   678,   679,   680,   681,   682,   683,   685,   686,   687
   688,   689,   690,   930,  7989,  8213,  9534,  9561,  9562,  9563,  9591,  9610,  9624,  9637,  9652,  9667
  9668,  9683,  9696,  9888,  9897,  9903, 10170, 10171, 10172, 10173, 10174, 10175, 10176, 10177, 10178, 10179
 10180, 10181, 10182, 10183, 10184, 10185, 10186, 10187, 10188, 10189, 10190, 10191, 10192, 10193, 10194, 10195
 10196, 10197, 10198, 10199, 10200, 10201, 10202, 10407, 10408, 10438, 10450, 17003
*Nset, nset=Set-14, instance=Part-1-Copy-1
     1,     3,     4,     5,     6,     7,   310,   311,   312,   313,   314,   315,   316,   317,   318,   319
   320,   321,   322,   323,   324,   325,   326,   327,   328,   329,   330,   331,   332,   333,   334,   335
   336,   337,   338,   339,   340,   341,   342,   343,   344,   345,   346,   347,   348,   349,   350,   351
   352,   353,   354,   355,   356,   357,   358,   359,   360,   361,   362,   363,   364,   365,   366,   367
   368,   369,   370,   371,   372,   373,   374,   375,   376,   377,   378,   379,   380,   381,   382,   383
   384,   385,   386,   387,   388,   389,   390,   391,   392,   393,   394,   395,   396,   397,   398,   399
   400,   401,   402,   403,   404,   405,   406,   407,   408,   409,   410,   411,   412,   413,   414,   415
   416,   417,   418,   419,   420,   421,   422,   423,   424,   425,   426,   427,   428,   429,   430,   431
   432,   433,   434,   435,   436,   437,   438,   439,   440,   441,   442,   443,   444,   445,   446,   447
   448,   449,   450,   451,   452,   453,   454,   455,   456,   457,   458,   459,   460,   461,   462,   463
   464,   465,   466,   467,   468,   469,   470,   471,   472,   473,   474,   475,   476,   477,   478,   479
   480,   481,   482,   483,   484,   485,   486,   487,   488,   489,   490,   491,   492,   493,   494,   495
   496,   497,   498,   499,   500,   501,   502,   503,   504,   505,   506,   507,   508,   509,   510,   511
   512,   513,   514,   515,   516,   517,   518,   519,   520,   521,   522,   523,   524,   525,   526,   527
   528,   529,   530,   531, 18566, 18570, 18575, 18578, 18583, 18585, 18590, 18592, 18595, 18598, 18602, 18607
 18609, 18611, 18615, 18616, 18674, 18675, 18726, 18777, 18780, 18827, 18882, 18935, 19017, 19026, 19118, 19169
 19212, 19247, 19248, 19290, 19315, 19323, 19393, 19429, 19464, 19497, 19530, 19565, 19584, 19608, 19625, 19629
 19633, 19642, 19646, 19650, 19653, 19658, 19661, 19662, 19663, 19719, 19723, 19775, 19831, 19889, 19891, 19940
 19986, 21043, 21046, 21048, 21053, 21055, 21058, 21059, 21062, 21063, 21066, 21068, 21070, 21073, 21075, 21078
 21082, 21085, 21087, 21089, 21092, 21095, 21098, 21101, 21103, 21106, 21108, 21111, 21114, 21117, 21141, 21142
** ... 9 like lines cut
*Elset, elset=Set-14, instance=Part-1-Copy-1
     1,     3,     4,     5,     6,     7,     8,     9,    10,    11,    12,    13,    14,    15,    30,    31
    45,    60,    61,    74,    89,   104,   125,   127,   151,   164,   176,   185,   186,   197,   203,   205
   223,   232,   241,   250,   259,   268,   273,   280,   285,   286,   287,   290,   292,   293,   294,   296
   297,   298,   313,   314,   328,   343,   358,   359,   372,   384,   720,   721,   722,   724,   725,   726
   727,   728,   729,   730,   731,   732,   733,   734,   735,   736,   737,   738,   739,   740,   741,   742
   743,   744,   745,   746,   747,   748,   749,   756,   757,   758,   759,   760,   761,   762,   763,   764
   765,   919,   920,   922,   924,   925,   955,   966,  1015,  1148,  1215,  5469,  7982,  8213,  8389,  8390
  9519,  9521,  9545,  9546,  9576,  9577,  9578,  9579,  9622,  9636,  9650,  9651,  9666,  9680,  9681,  9686
  9688,  9693,  9695,  9696,  9697,  9710,  9721,  9722,  9732,  9733,  9743,  9750,  9751,  9763,  9770,  9776
  9777,  9781,  9782,  9785,  9787,  9791,  9795,  9797,  9799,  9822,  9823,  9833,  9842,  9850,  9858,  9864
  9869,  9874,  9878,  9881,  9883,  9910,  9932,  9988, 10032, 10056, 10074, 10108, 10144, 10203, 10204, 10205
 10206, 10207, 10208, 10209, 10210, 10211, 10212, 10213, 10220, 10221, 10222, 10223, 10224, 10225, 10226, 10227
 10228, 10229, 10230, 10231, 10232, 10233, 10234, 10235, 10236, 10237, 10238, 10239, 10240, 10241, 10242, 10243
 10244, 10245, 10246, 10247, 10248, 10249, 10399, 10400, 10402, 10601, 10606, 10785, 17008, 17081, 17196, 17324
*Nset, nset=Set-15, instance=Part-1-1
     3,     4,     7,   310,   311,   312,   313,   314,   315,   316,   317,   318,   319,   320,   321,   322
   323,   324,   325,   326,   327,   328,   329,   330,   331,   332,   333,   334,   335,   336,   337,   338
   339,   340,   341,   342,   343,   344,   345,   346,   347,   348,   349,   350,   351,   352,   353,   354
   355,   356,   357,   358,   359,   360,   361,   362,   479,   480,   481,   482,   483,   484,   485,   486
   487,   488,   489,   490,   491,   492,   493,   494,   495,   496,   497,   498,   499,   500,   501,   502
   503,   504,   505,   506,   507,   508,   509,   510,   511,   512,   513,   514,   515,   516,   517,   518
   519,   520,   521,   522,   523,   524,   525,   526,   527,   528,   529,   530,   531, 19315, 19323, 19393
 19429, 19464, 19497, 19530, 19565, 19629, 19633, 19646, 19658, 19662, 21043, 21046, 21048, 21053, 21055, 21058
 21059, 21062, 21063, 21066, 21068, 21070, 21073, 21075, 21078, 21082, 21085, 21087, 21089, 21092, 21095, 21098
 21101, 21103, 21106, 21108, 21111, 21114, 21117, 21627, 21630, 21636, 21641, 21642, 21702, 21727, 21834, 22178
 22308, 31957, 36823, 37833, 37843, 38841, 38931, 38934, 38972, 39007, 39038, 39069, 39092, 39111, 39130, 39143
 39154, 40152, 40171, 40173, 40176, 40178, 40181, 40184, 40186, 40189, 40192, 40195, 40197, 40200, 40202, 40205
 40208, 40211, 40214, 40215, 40219, 40221, 40223, 40225, 40227, 40229, 40231, 40232, 40234, 40236, 40237, 40238
 40605, 40608, 40614, 40973, 40982, 41411, 54739, 54963, 55084
*Elset, elset=Set-15, instance=Part-1-1
   203,   205,   223,   232,   241,   250,   259,   268,   286,   287,   292,   296,   298,   720,   721,   722
   724,   725,   726,   727,   728,   729,   730,   731,   732,   733,   734,   735,   736,   737,   738,   739
   740,   741,   742,   743,   744,   745,   746,   747,   748,   749,   919,   920,   922,   924,   925,   955
   966,  1015,  1148,  1215,  5469,  7982,  9519,  9521,  9799,  9822,  9823,  9833,  9842,  9850,  9858,  9864
  9869,  9874,  9878,  9881, 10213, 10220, 10221, 10222, 10223, 10224, 10225, 10226, 10227, 10228, 10229, 10230
 10231, 10232, 10233, 10234, 10235, 10236, 10237, 10238, 10239, 10240, 10241, 10242, 10243, 10244, 10245, 10246
 10247, 10248, 10249, 10399, 10400, 10402, 10601, 10606, 10785, 17008, 17196, 17324
*Nset, nset=Set-16, instance=Part-1-Copy-1, generate
     1,  55528,      1
*Elset, elset=Set-16, instance=Part-1-Copy-1, generate
     1,  18397,      1
*Nset, nset=Set-17, instance=Part-1-1, generate
     1,  55528,      1
*Elset, elset=Set-17, instance=Part-1-1, generate
     1,  18397,      1
*Nset, nset=Set-18, instance=Part-1-Copy-1
     1,     2,     3,     4,     5,     6,     7,     8,     9,    10,    11,    12,    13,    14,    15,    16
    17,    18,    19,    20,    21,    22,    23,    24,    25,    26,    27,    28,    29,    30,    31,    32
    33,    34,    35,    36,    37,    38,    39,    40,    41,    42,    43,    44,    45,    46,    47,    48
    49,    50,    51,    52,    53,    54,    55,    56,    57,    58,    59,    60,   310,   311,   312,   313
   314,   315,   316,   317,   318,   319,   320,   321,   322,   323,   324,   325,   326,   327,   328,   329
   330,   331,   332,   333,   334,   335,   336,   337,   338,   339,   340,   341,   342,   343,   344,   345
   346,   347,   348,   349,   350,   351,   352,   353,   354,   355,   356,   357,   358,   359,   360,   361
   362,   363,   364,   365,   366,   367,   368,   369,   370,   371,   372,   373,   374,   375,   376,   377
   378,   379,   380,   381,   382,   383,   384,   385,   386,   387,   388,   389,   390,   391,   392,   393
   394,   395,   396,   397,   398,   399,   400,   401,   402,   403,   404,   405,   406,   407,   408,   409
   410,   411,   412,   413,   414,   415,   416,   417,   418,   419,   420,   421,   422,   423,   424,   425
   426,   427,   428,   429,   430,   431,   432,   433,   434,   435,   436,   437,   438,   439,   440,   441
   442,   443,   444,   445,   446,   447,   448,   449,   450,   451,   452,   453,   454,   455,   456,   457
   458,   459,   460,   461,   462,   463,   464,   465,   466,   467,   468,   469,   470,   471,   472,   473
   474,   475,   476,   477,   478,   479,   480,   481,   482,   483,   484,   485,   486,   487,   488,   489
   490,   491,   492,   493,   494,   495,   496,   497,   498,   499,   500,   501,   502,   503,   504,   505
   506,   507,   508,   509,   510,   511,   512,   513,   514,   515,   516,   517,   518,   519,   520,   521
   522,   523,   524,   525,   526,   527,   528,   529,   530,   531, 18513, 18514, 18515, 18516, 18517, 18518
 18519, 18520, 18521, 18522, 18523, 18524, 18525, 18526, 18527, 18528, 18529, 18530, 18531, 18532, 18533, 18534
 18535, 18536, 18537, 18538, 18539, 18540, 18541, 18542, 18543, 18544, 18545, 18546, 18547, 18548, 18549, 18550
** ... 22 like lines cut
*Elset, elset=Set-18, instance=Part-1-Copy-1
     1,     3,     4,     5,     6,     7,     8,     9,    10,    11,    12,    13,    14,    15,    16,    17
    30,    31,    32,    45,    46,    60,    61,    62,    74,    75,    89,    91,    92,   104,   106,   107
   108,   109,   110,   113,   125,   127,   151,   164,   176,   185,   186,   197,   203,   205,   223,   232
   241,   250,   259,   268,   273,   280,   285,   286,   287,   290,   292,   293,   294,   296,   297,   298
   312,   313,   314,   327,   328,   342,   343,   358,   359,   372,   384,   656,   657,   658,   659,   660
   661,   662,   663,   664,   665,   666,   667,   668,   669,   670,   671,   672,   673,   674,   675,   676
   677,   678,   679,   680,   681,   682,   683,   685,   686,   687,   688,   689,   690,   720,   721,   722
   724,   725,   726,   727,   728,   729,   730,   731,   732,   733,   734,   735,   736,   737,   738,   739
   740,   741,   742,   743,   744,   745,   746,   747,   748,   749,   756,   757,   758,   759,   760,   761
   762,   763,   764,   765,   919,   920,   922,   924,   925,   930,   955,   966,  1015,  1148,  1215,  5469
  7982,  7989,  8213,  8389,  8390,  9519,  9521,  9534,  9545,  9546,  9561,  9562,  9563,  9576,  9577,  9578
  9579,  9591,  9610,  9622,  9624,  9636,  9637,  9650,  9651,  9652,  9666,  9667,  9668,  9680,  9681,  9683
  9686,  9688,  9693,  9695,  9696,  9697,  9710,  9721,  9722,  9732,  9733,  9743,  9750,  9751,  9763,  9770
  9776,  9777,  9781,  9782,  9785,  9787,  9791,  9795,  9797,  9799,  9822,  9823,  9833,  9842,  9850,  9858
  9864,  9869,  9874,  9878,  9881,  9883,  9888,  9897,  9903,  9910,  9932,  9988, 10032, 10056, 10074, 10108
 10144, 10170, 10171, 10172, 10173, 10174, 10175, 10176, 10177, 10178, 10179, 10180, 10181, 10182, 10183, 10184
 10185, 10186, 10187, 10188, 10189, 10190, 10191, 10192, 10193, 10194, 10195, 10196, 10197, 10198, 10199, 10200
 10201, 10202, 10203, 10204, 10205, 10206, 10207, 10208, 10209, 10210, 10211, 10212, 10213, 10220, 10221, 10222
 10223, 10224, 10225, 10226, 10227, 10228, 10229, 10230, 10231, 10232, 10233, 10234, 10235, 10236, 10237, 10238
 10239, 10240, 10241, 10242, 10243, 10244, 10245, 10246, 10247, 10248, 10249, 10399, 10400, 10402, 10407, 10408
 10438, 10450, 10601, 10606, 10785, 17003, 17008, 17081, 17196, 17324
*Nset, nset=Set-20, instance=Part-1-1
 7,
*Nset, nset=Set-24, instance=Part-1-Copy-1
     1,     3,     4,     5,     6,     7,   310,   311,   312,   313,   314,   315,   316,   317,   318,   319
   320,   321,   322,   323,   324,   325,   326,   327,   328,   329,   330,   331,   332,   333,   334,   335
   336,   337,   338,   339,   340,   341,   342,   343,   344,   345,   346,   347,   348,   349,   350,   351
   352,   353,   354,   355,   356,   357,   358,   359,   360,   361,   362,   363,   364,   365,   366,   367
   368,   369,   370,   371,   372,   373,   374,   375,   376,   377,   378,   379,   380,   381,   382,   383
   384,   385,   386,   387,   388,   389,   390,   391,   392,   393,   394,   395,   396,   397,   398,   399
   400,   401,   402,   403,   404,   405,   406,   407,   408,   409,   410,   411,   412,   413,   414,   415
   416,   417,   418,   419,   420,   421,   422,   423,   424,   425,   426,   427,   428,   429,   430,   431
   432,   433,   434,   435,   436,   437,   438,   439,   440,   441,   442,   443,   444,   445,   446,   447
   448,   449,   450,   451,   452,   453,   454,   455,   456,   457,   458,   459,   460,   461,   462,   463
   464,   465,   466,   467,   468,   469,   470,   471,   472,   473,   474,   475,   476,   477,   478,   479
   480,   481,   482,   483,   484,   485,   486,   487,   488,   489,   490,   491,   492,   493,   494,   495
   496,   497,   498,   499,   500,   501,   502,   503,   504,   505,   506,   507,   508,   509,   510,   511
   512,   513,   514,   515,   516,   517,   518,   519,   520,   521,   522,   523,   524,   525,   526,   527
   528,   529,   530,   531, 18566, 18570, 18575, 18578, 18583, 18585, 18590, 18592, 18595, 18598, 18602, 18607
 18609, 18611, 18615, 18616, 18674, 18675, 18726, 18777, 18780, 18827, 18882, 18935, 19017, 19026, 19118, 19169
 19212, 19247, 19248, 19290, 19315, 19323, 19393, 19429, 19464, 19497, 19530, 19565, 19584, 19608, 19625, 19629
 19633, 19642, 19646, 19650, 19653, 19658, 19661, 19662, 19663, 19719, 19723, 19775, 19831, 19889, 19891, 19940
 19986, 21043, 21046, 21048, 21053, 21055, 21058, 21059, 21062, 21063, 21066, 21068, 21070, 21073, 21075, 21078
 21082, 21085, 21087, 21089, 21092, 21095, 21098, 21101, 21103, 21106, 21108, 21111, 21114, 21117, 21141, 21142
** ... 9 like lines cut
*Elset, elset=Set-24, instance=Part-1-Copy-1
     1,     3,     4,     5,     6,     7,     8,     9,    10,    11,    12,    13,    14,    15,    30,    31
    45,    60,    61,    74,    89,   104,   125,   127,   151,   164,   176,   185,   186,   197,   203,   205
   223,   232,   241,   250,   259,   268,   273,   280,   285,   286,   287,   290,   292,   293,   294,   296
   297,   298,   313,   314,   328,   343,   358,   359,   372,   384,   720,   721,   722,   724,   725,   726
   727,   728,   729,   730,   731,   732,   733,   734,   735,   736,   737,   738,   739,   740,   741,   742
   743,   744,   745,   746,   747,   748,   749,   756,   757,   758,   759,   760,   761,   762,   763,   764
   765,   919,   920,   922,   924,   925,   955,   966,  1015,  1148,  1215,  5469,  7982,  8213,  8389,  8390
  9519,  9521,  9545,  9546,  9576,  9577,  9578,  9579,  9622,  9636,  9650,  9651,  9666,  9680,  9681,  9686
  9688,  9693,  9695,  9696,  9697,  9710,  9721,  9722,  9732,  9733,  9743,  9750,  9751,  9763,  9770,  9776
  9777,  9781,  9782,  9785,  9787,  9791,  9795,  9797,  9799,  9822,  9823,  9833,  9842,  9850,  9858,  9864
  9869,  9874,  9878,  9881,  9883,  9910,  9932,  9988, 10032, 10056, 10074, 10108, 10144, 10203, 10204, 10205
 10206, 10207, 10208, 10209, 10210, 10211, 10212, 10213, 10220, 10221, 10222, 10223, 10224, 10225, 10226, 10227
 10228, 10229, 10230, 10231, 10232, 10233, 10234, 10235, 10236, 10237, 10238, 10239, 10240, 10241, 10242, 10243
 10244, 10245, 10246, 10247, 10248, 10249, 10399, 10400, 10402, 10601, 10606, 10785, 17008, 17081, 17196, 17324
*Nset, nset=Set-25, instance=Part-1-Copy-1
     1,     2,     3,     4,     5,     6,     7,     8,     9,    10,    11,    12,    13,    14,    15,    16
    17,    18,    19,    20,    21,    22,    23,    24,    25,    26,    27,    28,    29,    30,    31,    32
    33,    34,    35,    36,    37,    38,    39,    40,    41,    42,    43,    44,    45,    46,    47,    48
    49,    50,    51,    52,    53,    54,    55,    56,    57,    58,    59,    60,   310,   311,   312,   313
   314,   315,   316,   317,   318,   319,   320,   321,   322,   323,   324,   325,   326,   327,   328,   329
   330,   331,   332,   333,   334,   335,   336,   337,   338,   339,   340,   341,   342,   343,   344,   345
   346,   347,   348,   349,   350,   351,   352,   353,   354,   355,   356,   357,   358,   359,   360,   361
   362,   363,   364,   365,   366,   367,   368,   369,   370,   371,   372,   373,   374,   375,   376,   377
   378,   379,   380,   381,   382,   383,   384,   385,   386,   387,   388,   389,   390,   391,   392,   393
   394,   395,   396,   397,   398,   399,   400,   401,   402,   403,   404,   405,   406,   407,   408,   409
   410,   411,   412,   413,   414,   415,   416,   417,   418,   419,   420,   421,   422,   423,   424,   425
   426,   427,   428,   429,   430,   431,   432,   433,   434,   435,   436,   437,   438,   439,   440,   441
   442,   443,   444,   445,   446,   447,   448,   449,   450,   451,   452,   453,   454,   455,   456,   457
   458,   459,   460,   461,   462,   463,   464,   465,   466,   467,   468,   469,   470,   471,   472,   473
   474,   475,   476,   477,   478,   479,   480,   481,   482,   483,   484,   485,   486,   487,   488,   489
   490,   491,   492,   493,   494,   495,   496,   497,   498,   499,   500,   501,   502,   503,   504,   505
   506,   507,   508,   509,   510,   511,   512,   513,   514,   515,   516,   517,   518,   519,   520,   521
   522,   523,   524,   525,   526,   527,   528,   529,   530,   531, 18513, 18514, 18515, 18516, 18517, 18518
 18519, 18520, 18521, 18522, 18523, 18524, 18525, 18526, 18527, 18528, 18529, 18530, 18531, 18532, 18533, 18534
 18535, 18536, 18537, 18538, 18539, 18540, 18541, 18542, 18543, 18544, 18545, 18546, 18547, 18548, 18549, 18550
** ... 22 like lines cut
*Elset, elset=Set-25, instance=Part-1-Copy-1
     1,     3,     4,     5,     6,     7,     8,     9,    10,    11,    12,    13,    14,    15,    16,    17
    30,    31,    32,    45,    46,    60,    61,    62,    74,    75,    89,    91,    92,   104,   106,   107
   108,   109,   110,   113,   125,   127,   151,   164,   176,   185,   186,   197,   203,   205,   223,   232
   241,   250,   259,   268,   273,   280,   285,   286,   287,   290,   292,   293,   294,   296,   297,   298
   312,   313,   314,   327,   328,   342,   343,   358,   359,   372,   384,   656,   657,   658,   659,   660
   661,   662,   663,   664,   665,   666,   667,   668,   669,   670,   671,   672,   673,   674,   675,   676
   677,   678,   679,   680,   681,   682,   683,   685,   686,   687,   688,   689,   690,   720,   721,   722
   724,   725,   726,   727,   728,   729,   730,   731,   732,   733,   734,   735,   736,   737,   738,   739
   740,   741,   742,   743,   744,   745,   746,   747,   748,   749,   756,   757,   758,   759,   760,   761
   762,   763,   764,   765,   919,   920,   922,   924,   925,   930,   955,   966,  1015,  1148,  1215,  5469
  7982,  7989,  8213,  8389,  8390,  9519,  9521,  9534,  9545,  9546,  9561,  9562,  9563,  9576,  9577,  9578
  9579,  9591,  9610,  9622,  9624,  9636,  9637,  9650,  9651,  9652,  9666,  9667,  9668,  9680,  9681,  9683
  9686,  9688,  9693,  9695,  9696,  9697,  9710,  9721,  9722,  9732,  9733,  9743,  9750,  9751,  9763,  9770
  9776,  9777,  9781,  9782,  9785,  9787,  9791,  9795,  9797,  9799,  9822,  9823,  9833,  9842,  9850,  9858
  9864,  9869,  9874,  9878,  9881,  9883,  9888,  9897,  9903,  9910,  9932,  9988, 10032, 10056, 10074, 10108
 10144, 10170, 10171, 10172, 10173, 10174, 10175, 10176, 10177, 10178, 10179, 10180, 10181, 10182, 10183, 10184
 10185, 10186, 10187, 10188, 10189, 10190, 10191, 10192, 10193, 10194, 10195, 10196, 10197, 10198, 10199, 10200
 10201, 10202, 10203, 10204, 10205, 10206, 10207, 10208, 10209, 10210, 10211, 10212, 10213, 10220, 10221, 10222
 10223, 10224, 10225, 10226, 10227, 10228, 10229, 10230, 10231, 10232, 10233, 10234, 10235, 10236, 10237, 10238
 10239, 10240, 10241, 10242, 10243, 10244, 10245, 10246, 10247, 10248, 10249, 10399, 10400, 10402, 10407, 10408
 10438, 10450, 10601, 10606, 10785, 17003, 17008, 17081, 17196, 17324
*Nset, nset=Set-49, instance=Part-1-Copy-1
     1,     3,     4,     5,     6,     7,   310,   311,   312,   313,   314,   315,   316,   317,   318,   319
   320,   321,   322,   323,   324,   325,   326,   327,   328,   329,   330,   331,   332,   333,   334,   335
   336,   337,   338,   339,   340,   341,   342,   343,   344,   345,   346,   347,   348,   349,   350,   351
   352,   353,   354,   355,   356,   357,   358,   359,   360,   361,   362,   363,   364,   365,   366,   367
   368,   369,   370,   371,   372,   373,   374,   375,   376,   377,   378,   379,   380,   381,   382,   383
   384,   385,   386,   387,   388,   389,   390,   391,   392,   393,   394,   395,   396,   397,   398,   399
   400,   401,   402,   403,   404,   405,   406,   407,   408,   409,   410,   411,   412,   413,   414,   415
   416,   417,   418,   419,   420,   421,   422,   423,   424,   425,   426,   427,   428,   429,   430,   431
   432,   433,   434,   435,   436,   437,   438,   439,   440,   441,   442,   443,   444,   445,   446,   447
   448,   449,   450,   451,   452,   453,   454,   455,   456,   457,   458,   459,   460,   461,   462,   463
   464,   465,   466,   467,   468,   469,   470,   471,   472,   473,   474,   475,   476,   477,   478,   479
   480,   481,   482,   483,   484,   485,   486,   487,   488,   489,   490,   491,   492,   493,   494,   495
   496,   497,   498,   499,   500,   501,   502,   503,   504,   505,   506,   507,   508,   509,   510,   511
   512,   513,   514,   515,   516,   517,   518,   519,   520,   521,   522,   523,   524,   525,   526,   527
   528,   529,   530,   531, 18566, 18570, 18575, 18578, 18583, 18585, 18590, 18592, 18595, 18598, 18602, 18607
 18609, 18611, 18615, 18616, 18674, 18675, 18726, 18777, 18780, 18827, 18882, 18935, 19017, 19026, 19118, 19169
 19212, 19247, 19248, 19290, 19315, 19323, 19393, 19429, 19464, 19497, 19530, 19565, 19584, 19608, 19625, 19629
 19633, 19642, 19646, 19650, 19653, 19658, 19661, 19662, 19663, 19719, 19723, 19775, 19831, 19889, 19891, 19940
 19986, 21043, 21046, 21048, 21053, 21055, 21058, 21059, 21062, 21063, 21066, 21068, 21070, 21073, 21075, 21078
 21082, 21085, 21087, 21089, 21092, 21095, 21098, 21101, 21103, 21106, 21108, 21111, 21114, 21117, 21141, 21142
** ... 9 like lines cut
*Elset, elset=Set-49, instance=Part-1-Copy-1
     1,     3,     4,     5,     6,     7,     8,     9,    10,    11,    12,    13,    14,    15,    30,    31
    45,    60,    61,    74,    89,   104,   125,   127,   151,   164,   176,   185,   186,   197,   203,   205
   223,   232,   241,   250,   259,   268,   273,   280,   285,   286,   287,   290,   292,   293,   294,   296
   297,   298,   313,   314,   328,   343,   358,   359,   372,   384,   720,   721,   722,   724,   725,   726
   727,   728,   729,   730,   731,   732,   733,   734,   735,   736,   737,   738,   739,   740,   741,   742
   743,   744,   745,   746,   747,   748,   749,   756,   757,   758,   759,   760,   761,   762,   763,   764
   765,   919,   920,   922,   924,   925,   955,   966,  1015,  1148,  1215,  5469,  7982,  8213,  8389,  8390
  9519,  9521,  9545,  9546,  9576,  9577,  9578,  9579,  9622,  9636,  9650,  9651,  9666,  9680,  9681,  9686
  9688,  9693,  9695,  9696,  9697,  9710,  9721,  9722,  9732,  9733,  9743,  9750,  9751,  9763,  9770,  9776
  9777,  9781,  9782,  9785,  9787,  9791,  9795,  9797,  9799,  9822,  9823,  9833,  9842,  9850,  9858,  9864
  9869,  9874,  9878,  9881,  9883,  9910,  9932,  9988, 10032, 10056, 10074, 10108, 10144, 10203, 10204, 10205
 10206, 10207, 10208, 10209, 10210, 10211, 10212, 10213, 10220, 10221, 10222, 10223, 10224, 10225, 10226, 10227
 10228, 10229, 10230, 10231, 10232, 10233, 10234, 10235, 10236, 10237, 10238, 10239, 10240, 10241, 10242, 10243
 10244, 10245, 10246, 10247, 10248, 10249, 10399, 10400, 10402, 10601, 10606, 10785, 17008, 17081, 17196, 17324
*Nset, nset=Set-50, instance=Part-1-1
 7,
*Nset, nset=Set-51, instance=Part-1-Copy-1
     1,     2,     3,     4,     5,     6,     7,     8,     9,    10,    11,    12,    13,    14,    15,    16
    17,    18,    19,    20,    21,    22,    23,    24,    25,    26,    27,    28,    29,    30,    31,    32
    33,    34,    35,    36,    37,    38,    39,    40,    41,    42,    43,    44,    45,    46,    47,    48
    49,    50,    51,    52,    53,    54,    55,    56,    57,    58,    59,    60,   310,   311,   312,   313
   314,   315,   316,   317,   318,   319,   320,   321,   322,   323,   324,   325,   326,   327,   328,   329
   330,   331,   332,   333,   334,   335,   336,   337,   338,   339,   340,   341,   342,   343,   344,   345
   346,   347,   348,   349,   350,   351,   352,   353,   354,   355,   356,   357,   358,   359,   360,   361
   362,   363,   364,   365,   366,   367,   368,   369,   370,   371,   372,   373,   374,   375,   376,   377
   378,   379,   380,   381,   382,   383,   384,   385,   386,   387,   388,   389,   390,   391,   392,   393
   394,   395,   396,   397,   398,   399,   400,   401,   402,   403,   404,   405,   406,   407,   408,   409
   410,   411,   412,   413,   414,   415,   416,   417,   418,   419,   420,   421,   422,   423,   424,   425
   426,   427,   428,   429,   430,   431,   432,   433,   434,   435,   436,   437,   438,   439,   440,   441
   442,   443,   444,   445,   446,   447,   448,   449,   450,   451,   452,   453,   454,   455,   456,   457
   458,   459,   460,   461,   462,   463,   464,   465,   466,   467,   468,   469,   470,   471,   472,   473
   474,   475,   476,   477,   478,   479,   480,   481,   482,   483,   484,   485,   486,   487,   488,   489
   490,   491,   492,   493,   494,   495,   496,   497,   498,   499,   500,   501,   502,   503,   504,   505
   506,   507,   508,   509,   510,   511,   512,   513,   514,   515,   516,   517,   518,   519,   520,   521
   522,   523,   524,   525,   526,   527,   528,   529,   530,   531, 18513, 18514, 18515, 18516, 18517, 18518
 18519, 18520, 18521, 18522, 18523, 18524, 18525, 18526, 18527, 18528, 18529, 18530, 18531, 18532, 18533, 18534
 18535, 18536, 18537, 18538, 18539, 18540, 18541, 18542, 18543, 18544, 18545, 18546, 18547, 18548, 18549, 18550
** ... 22 like lines cut
*Elset, elset=Set-51, instance=Part-1-Copy-1
     1,     3,     4,     5,     6,     7,     8,     9,    10,    11,    12,    13,    14,    15,    16,    17
    30,    31,    32,    45,    46,    60,    61,    62,    74,    75,    89,    91,    92,   104,   106,   107
   108,   109,   110,   113,   125,   127,   151,   164,   176,   185,   186,   197,   203,   205,   223,   232
   241,   250,   259,   268,   273,   280,   285,   286,   287,   290,   292,   293,   294,   296,   297,   298
   312,   313,   314,   327,   328,   342,   343,   358,   359,   372,   384,   656,   657,   658,   659,   660
   661,   662,   663,   664,   665,   666,   667,   668,   669,   670,   671,   672,   673,   674,   675,   676
   677,   678,   679,   680,   681,   682,   683,   685,   686,   687,   688,   689,   690,   720,   721,   722
   724,   725,   726,   727,   728,   729,   730,   731,   732,   733,   734,   735,   736,   737,   738,   739
   740,   741,   742,   743,   744,   745,   746,   747,   748,   749,   756,   757,   758,   759,   760,   761
   762,   763,   764,   765,   919,   920,   922,   924,   925,   930,   955,   966,  1015,  1148,  1215,  5469
  7982,  7989,  8213,  8389,  8390,  9519,  9521,  9534,  9545,  9546,  9561,  9562,  9563,  9576,  9577,  9578
  9579,  9591,  9610,  9622,  9624,  9636,  9637,  9650,  9651,  9652,  9666,  9667,  9668,  9680,  9681,  9683
  9686,  9688,  9693,  9695,  9696,  9697,  9710,  9721,  9722,  9732,  9733,  9743,  9750,  9751,  9763,  9770
  9776,  9777,  9781,  9782,  9785,  9787,  9791,  9795,  9797,  9799,  9822,  9823,  9833,  9842,  9850,  9858
  9864,  9869,  9874,  9878,  9881,  9883,  9888,  9897,  9903,  9910,  9932,  9988, 10032, 10056, 10074, 10108
 10144, 10170, 10171, 10172, 10173, 10174, 10175, 10176, 10177, 10178, 10179, 10180, 10181, 10182, 10183, 10184
 10185, 10186, 10187, 10188, 10189, 10190, 10191, 10192, 10193, 10194, 10195, 10196, 10197, 10198, 10199, 10200
 10201, 10202, 10203, 10204, 10205, 10206, 10207, 10208, 10209, 10210, 10211, 10212, 10213, 10220, 10221, 10222
 10223, 10224, 10225, 10226, 10227, 10228, 10229, 10230, 10231, 10232, 10233, 10234, 10235, 10236, 10237, 10238
 10239, 10240, 10241, 10242, 10243, 10244, 10245, 10246, 10247, 10248, 10249, 10399, 10400, 10402, 10407, 10408
 10438, 10450, 10601, 10606, 10785, 17003, 17008, 17081, 17196, 17324
*Nset, nset=Set-73, instance=Part-1-Copy-1, generate
     1,  55528,      1
*Elset, elset=Set-73, instance=Part-1-Copy-1, generate
     1,  18397,      1
*Nset, nset=Top, instance=Part-1-1
     4,     5,   363,   364,   365,   366,   367,   368,   369,   370,   371,   372,   373,   374,   375,   376
   377,   378,   379,   380,   381,   382,   383,   384,   385,   386,   387,   388,   389,   390,   391,   392
   393,   394,   395,   396,   397,   398,   399,   400,   401, 18615, 18674, 18675, 18726, 18777, 18780, 18827
 18882, 18935, 19017, 19026, 19118, 19169, 19212, 19247, 19248, 19290, 19584, 19608, 19625, 19642, 19650, 19653
 19661, 19663, 19719, 19723, 19775, 19831, 19889, 19891, 19940, 19986, 21141, 21142, 21143, 21145, 21147, 37254
 37255,
*Elset, elset=Top, instance=Part-1-1
   15,   30,   31,   45,   60,   61,   74,   89,  104,  125,  127,  151,  164,  176,  185,  186
  197,  273,  280,  285,  290,  293,  294,  297,  298,  313,  314,  328,  343,  358,  359,  372
  384,  756,  757,  758,  759,  760, 8389, 8390
*End Assembly
** 
** MATERIALS
** 
*Material, name=Material-1
*Density
1.,
*Depvar
      7,
*User Material, constants=2, type=THERMAL
 0.0075, 2.7
*User Material, constants=3, type=MECHANICAL
210000., 0.3,  1.
*Material, name=Material-2
*Density
1.,
*User Material, constants=1, type=THERMAL
 0.0127,
*User Material, constants=1, type=MECHANICAL
0.,
** 
** BOUNDARY CONDITIONS
** 
** Name: BC-Bottom-P1 Type: Displacement/Rotation
*Boundary
Set-1, 1, 1
Set-1, 2, 2
** Name: BC-Dis-P2 Type: Displacement/Rotation
*Boundary
Set-73, 1, 1
Set-73, 2, 2
Set-73, 6, 6
** Name: BC-ENV-P2 Type: Temperature
*Boundary
Set-51, 11, 11
** 
** PREDEFINED FIELDS
** 
** Name: Predefined Field-1   Type: Temperature
*Initial Conditions, type=TEMPERATURE
Set-4, 0.5
** ----------------------------------------------------------------
** 
** STEP: Step-1
** 
*Step, name=Step-1, nlgeom=NO, extrapolation=NO, amplitude=RAMP, inc=100000000, unsymm=NO
*Coupled Temperature-displacement, creep=none
1000., 1e+07, 
*Solution Technique, type=SEPARATED
** 
** BOUNDARY CONDITIONS
** 
** Name: BC-ENV-P2 Type: Temperature
*Boundary
Set-51, 11, 11, 0.5
** Name: BC-Top-P1 Type: Displacement/Rotation
*Boundary
Set-3, 2, 2, 0.007
** 
** CONTROLS
** 
*Controls, reset
*Controls, parameters=time incrementation
50000, 50000, 50000, 50000, 50000, 50000, , , , , 
** 
** OUTPUT REQUESTS
** 
*Restart, write, frequency=0
** 
** FIELD OUTPUT: F-Output-1
** 
*Output, field, frequency=1
*Node Output
NT, U
*Element Output, directions=YES
S, SDV, TEMP
** 
** HISTORY OUTPUT: H-Output-1
** 
*Output, history
*Node Output, nset=Top
RF2, U2
*End Step
