*Heading
** Job name: HF-Simple Model name: PC-Monolithic-NoSplit-Anisotropic-Per1
** Generated by: Abaqus/CAE 2022
*Preprint, echo=NO, model=NO, history=NO, contact=NO
**
** PARTS
**
*Part, name=Part-1
*Node
      1,          0.5, 0.00999999978
      2,           0., 0.00999999978
      3,  0.100000001,           0.
      4,           0.,           0.
      5,          0.5,           0.
      6,          0.5,          0.5
      7,           0.,          0.5
      8,  0.499199986, 0.00999999978
      9,  0.498400003, 0.00999999978
     10,  0.497599989, 0.00999999978
     11,  0.496800005, 0.00999999978
     12,  0.495999992, 0.00999999978
     13,  0.495200008, 0.00999999978
     14,  0.494399995, 0.00999999978
     15,  0.493600011, 0.00999999978
     16,  0.492799997, 0.00999999978
     17,  0.492000014, 0.00999999978
     18,       0.4912, 0.00999999978
     19,  0.490399987, 0.00999999978
     20,  0.489600003, 0.00999999978
** ... 22012 like lines cut
*Element, type=CPE4T
   1,    1,    8, 1333, 1278
   2,    8,    9, 1334, 1333
   3,    9,   10, 1335, 1334
   4,   10,   11, 1336, 1335
   5,   11,   12, 1337, 1336
   6,   12,   13, 1338, 1337
   7,   13,   14, 1339, 1338
   8,   14,   15, 1340, 1339
   9,   15,   16, 1341, 1340
  10,   16,   17, 1342, 1341
  11,   17,   18, 1343, 1342
  12,   18,   19, 1344, 1343
  13,   19,   20, 1345, 1344
  14,   20,   21, 1346, 1345
  15,   21,   22, 1347, 1346
  16,   22,   23, 1348, 1347
  17,   23,   24, 1349, 1348
  18,   24,   25, 1350, 1349
  19,   25,   26, 1351, 1350
  20,   26,   27, 1352, 1351
** ... 21657 like lines cut
*Nset, nset=Set-3, generate
     1,  22032,      1
*Elset, elset=Set-3, generate
     1,  21677,      1
** Section: Section-1
*Solid Section, elset=Set-3, material=Material-1
,
*End Part
**  
*Part, name=Part-1-Copy
*Node
      1,          0.5, 0.00999999978
      2,           0., 0.00999999978
      3,  0.100000001,           0.
      4,           0.,           0.
      5,          0.5,           0.
      6,          0.5,          0.5
      7,           0.,          0.5
      8,  0.499199986, 0.00999999978
      9,  0.498400003, 0.00999999978
     10,  0.497599989, 0.00999999978
     11,  0.496800005, 0.00999999978
     12,  0.495999992, 0.00999999978
     13,  0.495200008, 0.00999999978
     14,  0.494399995, 0.00999999978
     15,  0.493600011, 0.00999999978
     16,  0.492799997, 0.00999999978
     17,  0.492000014, 0.00999999978
     18,       0.4912, 0.00999999978
     19,  0.490399987, 0.00999999978
     20,  0.489600003, 0.00999999978
** ... 22012 like lines cut
*Element, type=CPE4T
   1,    1,    8, 1333, 1278
   2,    8,    9, 1334, 1333
   3,    9,   10, 1335, 1334
   4,   10,   11, 1336, 1335
   5,   11,   12, 1337, 1336
   6,   12,   13, 1338, 1337
   7,   13,   14, 1339, 1338
   8,   14,   15, 1340, 1339
   9,   15,   16, 1341, 1340
  10,   16,   17, 1342, 1341
  11,   17,   18, 1343, 1342
  12,   18,   19, 1344, 1343
  13,   19,   20, 1345, 1344
  14,   20,   21, 1346, 1345
  15,   21,   22, 1347, 1346
  16,   22,   23, 1348, 1347
  17,   23,   24, 1349, 1348
  18,   24,   25, 1350, 1349
  19,   25,   26, 1351, 1350
  20,   26,   27, 1352, 1351
** ... 21657 like lines cut
*Nset, nset=Set-3, generate
     1,  22032,      1
*Elset, elset=Set-3, generate
     1,  21677,      1
** Section: Section-2
*Solid Section, elset=Set-3, material=Material-2
,
*End Part
**  
**
** ASSEMBLY
**
*Assembly, name=Assembly
**  
*Instance, name=Part-1-1, part=Part-1
*End Instance
**  
*Instance, name=Part-1-Copy-1, part=Part-1-Copy
        0.55,           0.,           0.
*End Instance
**  
*Nset, nset=Notch, instance=Part-1-1
    3,    4, 1143, 1144, 1145, 1146, 1147, 1148, 1149, 1150, 1151, 1152, 1153, 1154, 1155, 1156
 1157, 1158, 1159, 1160, 1161, 1162, 1163, 1164, 1165, 1166, 1167, 1168, 1169, 1170, 1171, 1172
 1173, 1174, 1175, 1176, 1177, 1178, 1179, 1180, 1181, 1182, 1183, 1184, 1185, 1186, 1187, 1188
 1189, 1190, 1191, 1192, 1193, 1194, 1195, 1196, 1197, 1198, 1199, 1200, 1201, 1202, 1203, 1204
 1205, 1206, 1207, 1208, 1209, 1210, 1211, 1212, 1213, 1214, 1215, 1216, 1217, 1218, 1219, 1220
 1221, 1222, 1223, 1224, 1225, 1226, 1227, 1228, 1229, 1230, 1231, 1232, 1233, 1234, 1235, 1236
 1237, 1238, 1239, 1240, 1241, 1242, 1243, 1244, 1245, 1246, 1247, 1248, 1249, 1250, 1251, 1252
 1253, 1254, 1255, 1256, 1257, 1258, 1259, 1260, 1261, 1262, 1263, 1264, 1265, 1266
*Elset, elset=Notch, instance=Part-1-1, generate
 8001,  8125,     1
*Nset, nset=Set-1, instance=Part-1-1
    1,    5,    6,    7, 1267, 1268, 1269, 1270, 1271, 1272, 1273, 1274, 1275, 1276, 1277, 1278
 1279, 1280, 1281, 1282, 1283, 1284, 1285, 1286, 1287, 1288, 1289, 1290, 1291, 1292, 1293, 1294
 1295, 1296, 1297, 1298, 1299, 1300, 1301, 1302, 1303, 1304, 1305, 1306, 1307, 1308, 1309, 1310
 1311, 1312, 1313
*Elset, elset=Set-1, instance=Part-1-1
     1,   626,  1251,  1876,  2501,  3126,  3751,  4376,  5001,  5626,  6251,  6876,  7501,  8137,  8148,  8149
  8158,  8174,  8175,  8196,  8197,  8208,  8213,  8219,  8220,  8225,  8234,  8235,  8240,  8241,  8242,  8244
  8245,  8246,  8247,  8257,  8268,  8269,  8425,  8426,  8427,  8428,  8429,  8696,  8699,  9101,  9710, 14369
 14475,
*Nset, nset=Set-2, instance=Part-1-1
    2,    4,    7,  632,  633,  634,  635,  636,  637,  638,  639,  640,  641,  642,  643, 1314
 1315, 1316, 1317, 1318, 1319, 1320, 1321, 1322, 1323, 1324, 1325, 1326, 1327, 1328, 1329, 1330
 1331, 1332
*Elset, elset=Set-2, instance=Part-1-1
   625,  1250,  1875,  2500,  3125,  3750,  4375,  5000,  5625,  6250,  6875,  7500,  8125,  8128,  8129,  8131
  8132,  8133,  8134,  8135,  8136,  8137,  8282,  8357,  8358,  8433,  8436,  8438,  9970, 10348, 11007, 14384
 14479,
*Nset, nset=Set-3, instance=Part-1-1
    3,    5,  644,  645,  646,  647,  648,  649,  650,  651,  652,  653,  654,  655,  656,  657
  658,  659,  660,  661,  662,  663,  664,  665,  666,  667,  668,  669,  670,  671,  672,  673
  674,  675,  676,  677,  678,  679,  680,  681,  682,  683,  684,  685,  686,  687,  688,  689
  690,  691,  692,  693,  694,  695,  696,  697,  698,  699,  700,  701,  702,  703,  704,  705
  706,  707,  708,  709,  710,  711,  712,  713,  714,  715,  716,  717,  718,  719,  720,  721
  722,  723,  724,  725,  726,  727,  728,  729,  730,  731,  732,  733,  734,  735,  736,  737
  738,  739,  740,  741,  742,  743,  744,  745,  746,  747,  748,  749,  750,  751,  752,  753
  754,  755,  756,  757,  758,  759,  760,  761,  762,  763,  764,  765,  766,  767,  768,  769
  770,  771,  772,  773,  774,  775,  776,  777,  778,  779,  780,  781,  782,  783,  784,  785
  786,  787,  788,  789,  790,  791,  792,  793,  794,  795,  796,  797,  798,  799,  800,  801
  802,  803,  804,  805,  806,  807,  808,  809,  810,  811,  812,  813,  814,  815,  816,  817
  818,  819,  820,  821,  822,  823,  824,  825,  826,  827,  828,  829,  830,  831,  832,  833
  834,  835,  836,  837,  838,  839,  840,  841,  842,  843,  844,  845,  846,  847,  848,  849
  850,  851,  852,  853,  854,  855,  856,  857,  858,  859,  860,  861,  862,  863,  864,  865
  866,  867,  868,  869,  870,  871,  872,  873,  874,  875,  876,  877,  878,  879,  880,  881
  882,  883,  884,  885,  886,  887,  888,  889,  890,  891,  892,  893,  894,  895,  896,  897
  898,  899,  900,  901,  902,  903,  904,  905,  906,  907,  908,  909,  910,  911,  912,  913
  914,  915,  916,  917,  918,  919,  920,  921,  922,  923,  924,  925,  926,  927,  928,  929
  930,  931,  932,  933,  934,  935,  936,  937,  938,  939,  940,  941,  942,  943,  944,  945
  946,  947,  948,  949,  950,  951,  952,  953,  954,  955,  956,  957,  958,  959,  960,  961
** ... 12 like lines cut
*Elset, elset=Set-3, instance=Part-1-1, generate
 7501,  8000,     1
*Nset, nset=Set-4, instance=Part-1-Copy-1
    6,    7, 1298, 1299, 1300, 1301, 1302, 1303, 1304, 1305, 1306, 1307, 1308, 1309, 1310, 1311
 1312, 1313
*Elset, elset=Set-4, instance=Part-1-Copy-1
 8137, 8148, 8149, 8158, 8174, 8175, 8196, 8197, 8241, 8242, 8244, 8245, 8246, 8247, 8257, 8268
 8269,
*Nset, nset=Set-5, instance=Part-1-Copy-1
    3,    4, 1143, 1144, 1145, 1146, 1147, 1148, 1149, 1150, 1151, 1152, 1153, 1154, 1155, 1156
 1157, 1158, 1159, 1160, 1161, 1162, 1163, 1164, 1165, 1166, 1167, 1168, 1169, 1170, 1171, 1172
 1173, 1174, 1175, 1176, 1177, 1178, 1179, 1180, 1181, 1182, 1183, 1184, 1185, 1186, 1187, 1188
 1189, 1190, 1191, 1192, 1193, 1194, 1195, 1196, 1197, 1198, 1199, 1200, 1201, 1202, 1203, 1204
 1205, 1206, 1207, 1208, 1209, 1210, 1211, 1212, 1213, 1214, 1215, 1216, 1217, 1218, 1219, 1220
 1221, 1222, 1223, 1224, 1225, 1226, 1227, 1228, 1229, 1230, 1231, 1232, 1233, 1234, 1235, 1236
 1237, 1238, 1239, 1240, 1241, 1242, 1243, 1244, 1245, 1246, 1247, 1248, 1249, 1250, 1251, 1252
 1253, 1254, 1255, 1256, 1257, 1258, 1259, 1260, 1261, 1262, 1263, 1264, 1265, 1266
*Elset, elset=Set-5, instance=Part-1-Copy-1, generate
 8001,  8125,     1
*Nset, nset=Set-6, instance=Part-1-1
    3,    4, 1143, 1144, 1145, 1146, 1147, 1148, 1149, 1150, 1151, 1152, 1153, 1154, 1155, 1156
 1157, 1158, 1159, 1160, 1161, 1162, 1163, 1164, 1165, 1166, 1167, 1168, 1169, 1170, 1171, 1172
 1173, 1174, 1175, 1176, 1177, 1178, 1179, 1180, 1181, 1182, 1183, 1184, 1185, 1186, 1187, 1188
 1189, 1190, 1191, 1192, 1193, 1194, 1195, 1196, 1197, 1198, 1199, 1200, 1201, 1202, 1203, 1204
 1205, 1206, 1207, 1208, 1209, 1210, 1211, 1212, 1213, 1214, 1215, 1216, 1217, 1218, 1219, 1220
 1221, 1222, 1223, 1224, 1225, 1226, 1227, 1228, 1229, 1230, 1231, 1232, 1233, 1234, 1235, 1236
 1237, 1238, 1239, 1240, 1241, 1242, 1243, 1244, 1245, 1246, 1247, 1248, 1249, 1250, 1251, 1252
 1253, 1254, 1255, 1256, 1257, 1258, 1259, 1260, 1261, 1262, 1263, 1264, 1265, 1266
*Elset, elset=Set-6, instance=Part-1-1, generate
 8001,  8125,     1
*Nset, nset=Set-7, instance=Part-1-1
    3,    4, 1143, 1144, 1145, 1146, 1147, 1148, 1149, 1150, 1151, 1152, 1153, 1154, 1155, 1156
 1157, 1158, 1159, 1160, 1161, 1162, 1163, 1164, 1165, 1166, 1167, 1168, 1169, 1170, 1171, 1172
 1173, 1174, 1175, 1176, 1177, 1178, 1179, 1180, 1181, 1182, 1183, 1184, 1185, 1186, 1187, 1188
 1189, 1190, 1191, 1192, 1193, 1194, 1195, 1196, 1197, 1198, 1199, 1200, 1201, 1202, 1203, 1204
 1205, 1206, 1207, 1208, 1209, 1210, 1211, 1212, 1213, 1214, 1215, 1216, 1217, 1218, 1219, 1220
 1221, 1222, 1223, 1224, 1225, 1226, 1227, 1228, 1229, 1230, 1231, 1232, 1233, 1234, 1235, 1236
 1237, 1238, 1239, 1240, 1241, 1242, 1243, 1244, 1245, 1246, 1247, 1248, 1249, 1250, 1251, 1252
 1253, 1254, 1255, 1256, 1257, 1258, 1259, 1260, 1261, 1262, 1263, 1264, 1265, 1266
*Elset, elset=Set-7, instance=Part-1-1, generate
 8001,  8125,     1
*Nset, nset=Set-8, instance=Part-1-1
    3,    4, 1143, 1144, 1145, 1146, 1147, 1148, 1149, 1150, 1151, 1152, 1153, 1154, 1155, 1156
 1157, 1158, 1159, 1160, 1161, 1162, 1163, 1164, 1165, 1166, 1167, 1168, 1169, 1170, 1171, 1172
 1173, 1174, 1175, 1176, 1177, 1178, 1179, 1180, 1181, 1182, 1183, 1184, 1185, 1186, 1187, 1188
 1189, 1190, 1191, 1192, 1193, 1194, 1195, 1196, 1197, 1198, 1199, 1200, 1201, 1202, 1203, 1204
 1205, 1206, 1207, 1208, 1209, 1210, 1211, 1212, 1213, 1214, 1215, 1216, 1217, 1218, 1219, 1220
 1221, 1222, 1223, 1224, 1225, 1226, 1227, 1228, 1229, 1230, 1231, 1232, 1233, 1234, 1235, 1236
 1237, 1238, 1239, 1240, 1241, 1242, 1243, 1244, 1245, 1246, 1247, 1248, 1249, 1250, 1251, 1252
 1253, 1254, 1255, 1256, 1257, 1258, 1259, 1260, 1261, 1262, 1263, 1264, 1265, 1266
*Elset, elset=Set-8, instance=Part-1-1, generate
 8001,  8125,     1
*Nset, nset=Set-10, instance=Part-1-1
    3,    5,  644,  645,  646,  647,  648,  649,  650,  651,  652,  653,  654,  655,  656,  657
  658,  659,  660,  661,  662,  663,  664,  665,  666,  667,  668,  669,  670,  671,  672,  673
  674,  675,  676,  677,  678,  679,  680,  681,  682,  683,  684,  685,  686,  687,  688,  689
  690,  691,  692,  693,  694,  695,  696,  697,  698,  699,  700,  701,  702,  703,  704,  705
  706,  707,  708,  709,  710,  711,  712,  713,  714,  715,  716,  717,  718,  719,  720,  721
  722,  723,  724,  725,  726,  727,  728,  729,  730,  731,  732,  733,  734,  735,  736,  737
  738,  739,  740,  741,  742,  743,  744,  745,  746,  747,  748,  749,  750,  751,  752,  753
  754,  755,  756,  757,  758,  759,  760,  761,  762,  763,  764,  765,  766,  767,  768,  769
  770,  771,  772,  773,  774,  775,  776,  777,  778,  779,  780,  781,  782,  783,  784,  785
  786,  787,  788,  789,  790,  791,  792,  793,  794,  795,  796,  797,  798,  799,  800,  801
  802,  803,  804,  805,  806,  807,  808,  809,  810,  811,  812,  813,  814,  815,  816,  817
  818,  819,  820,  821,  822,  823,  824,  825,  826,  827,  828,  829,  830,  831,  832,  833
  834,  835,  836,  837,  838,  839,  840,  841,  842,  843,  844,  845,  846,  847,  848,  849
  850,  851,  852,  853,  854,  855,  856,  857,  858,  859,  860,  861,  862,  863,  864,  865
  866,  867,  868,  869,  870,  871,  872,  873,  874,  875,  876,  877,  878,  879,  880,  881
  882,  883,  884,  885,  886,  887,  888,  889,  890,  891,  892,  893,  894,  895,  896,  897
  898,  899,  900,  901,  902,  903,  904,  905,  906,  907,  908,  909,  910,  911,  912,  913
  914,  915,  916,  917,  918,  919,  920,  921,  922,  923,  924,  925,  926,  927,  928,  929
  930,  931,  932,  933,  934,  935,  936,  937,  938,  939,  940,  941,  942,  943,  944,  945
  946,  947,  948,  949,  950,  951,  952,  953,  954,  955,  956,  957,  958,  959,  960,  961
** ... 12 like lines cut
*Elset, elset=Set-10, instance=Part-1-1, generate
 7501,  8000,     1
*Nset, nset=Set-11, instance=Part-1-1
    2,    4,    7,  632,  633,  634,  635,  636,  637,  638,  639,  640,  641,  642,  643, 1314
 1315, 1316, 1317, 1318, 1319, 1320, 1321, 1322, 1323, 1324, 1325, 1326, 1327, 1328, 1329, 1330
 1331, 1332
*Elset, elset=Set-11, instance=Part-1-1
   625,  1250,  1875,  2500,  3125,  3750,  4375,  5000,  5625,  6250,  6875,  7500,  8125,  8128,  8129,  8131
  8132,  8133,  8134,  8135,  8136,  8137,  8282,  8357,  8358,  8433,  8436,  8438,  9970, 10348, 11007, 14384
 14479,
*Nset, nset=Set-12, instance=Part-1-Copy-1
    1,    5,    6,    7, 1267, 1268, 1269, 1270, 1271, 1272, 1273, 1274, 1275, 1276, 1277, 1278
 1279, 1280, 1281, 1282, 1283, 1284, 1285, 1286, 1287, 1288, 1289, 1290, 1291, 1292, 1293, 1294
 1295, 1296, 1297, 1298, 1299, 1300, 1301, 1302, 1303, 1304, 1305, 1306, 1307, 1308, 1309, 1310
 1311, 1312, 1313
*Elset, elset=Set-12, instance=Part-1-Copy-1
     1,   626,  1251,  1876,  2501,  3126,  3751,  4376,  5001,  5626,  6251,  6876,  7501,  8137,  8148,  8149
  8158,  8174,  8175,  8196,  8197,  8208,  8213,  8219,  8220,  8225,  8234,  8235,  8240,  8241,  8242,  8244
  8245,  8246,  8247,  8257,  8268,  8269,  8425,  8426,  8427,  8428,  8429,  8696,  8699,  9101,  9710, 14369
 14475,
*Nset, nset=Set-13, instance=Part-1-Copy-1, generate
     1,  22032,      1
*Elset, elset=Set-13, instance=Part-1-Copy-1, generate
     1,  21677,      1
*End Assembly
** 
** MATERIALS
** 
*Material, name=Material-1
*Density
1.,
*Depvar
      4,
*User Material, constants=1, type=THERMAL
0.,
*User Material, constants=8, type=MECHANICAL
 2.1e+11,   0.3, 0.004, 2700.,    1., 0.002,   0.4,    1.
*Material, name=Material-2
*Density
1.,
*User Material, constants=6, type=THERMAL
1000.,     0.002,     1e-08,     1e-15, 1.333e-06,     0.001
*User Material, constants=1, type=MECHANICAL
0.,
** 
** BOUNDARY CONDITIONS
** 
** Name: BC-Edge-Bottom-P1 Type: Displacement/Rotation
*Boundary
Set-10, 2, 2
** Name: BC-Edge-Left-P1 Type: Displacement/Rotation
*Boundary
Set-11, 1, 1
** Name: BC-Edge-Top-Right-P1 Type: Displacement/Rotation
*Boundary
Set-1, 1, 1
Set-1, 2, 2
** Name: BC-Edge-Top-Right-P2 Type: Temperature
*Boundary
Set-12, 11, 11
** 
** PREDEFINED FIELDS
** 
** Name: Predefined Field-1   Type: Temperature
*Initial Conditions, type=TEMPERATURE
Set-8, 1.
** ----------------------------------------------------------------
** 
** STEP: Step-1
** 
*Step, name=Step-1, nlgeom=NO, extrapolation=NO, amplitude=RAMP, inc=10000000, unsymm=NO
*Coupled Temperature-displacement, creep=none, deltmx=1e+08
0.1, 2000., 1e-50, 20.
*Solution Technique, type=SEPARATED
** 
** BOUNDARY CONDITIONS
** 
** Name: BC-6 Type: Displacement/Rotation
*Boundary
Set-6, 2, 2
** Name: BC-7 Type: Temperature
*Boundary
Set-7, 11, 11, 1.
** Name: BC-Notch-P2 Type: Temperature
*Boundary
Set-5, 11, 11, 1e+08
** 
** CONTROLS
** 
*Controls, reset
*Controls, parameters=time incrementation
100000, 1000000, 1000000, 1000000, 1000000, 1000000, 1000000, 1000000, 1000000, 10, 1000000
** 
** OUTPUT REQUESTS
** 
*Restart, write, frequency=100
** 
** FIELD OUTPUT: F-Output-1
** 
*Output, field
*Node Output
CF, RF, U
*Element Output, directions=YES
ESDV, LE, PE, PEEQ, PEMAG, S, SDV
** 
** FIELD OUTPUT: F-Output-2
** 
*Node Output
NT, 
*Element Output, directions=YES
HFL, TEMP
*Radiation Output
FTEMP, 
*Contact Output
HFLA, HTL, HTLA
** 
** HISTORY OUTPUT: H-Output-1
** 
*Output, history
*Node Output, nset=Notch
U1, U2, UT
*End Step
