*Heading
** Job name: SENT Model name: SENT
** Generated by: Abaqus/CAE 2018
*Preprint, echo=NO, model=NO, history=NO, contact=NO
**
** PARTS
**
*Part, name=Part-1
*End Part
**  
**
** ASSEMBLY
**
*Assembly, name=Assembly
**  
*Instance, name=Part-1-1, part=Part-1
*Node
      1, -0.0500000007,           0.
      2, -0.0500000007, -0.0500000007
      3,          0.5, -0.0500000007
      4,           0.,           0.
      5,          0.5,           0.
      6, -0.0500000007, 0.0500000007
      7,          0.5, 0.0500000007
      8,          0.5,          0.5
      9,         -0.5,          0.5
     10,         -0.5,           0.
     11,         -0.5,         -0.5
     12,          0.5,         -0.5
     13, -0.0500000007, -0.00377808255
     14, -0.0500000007, -0.00756738707
     15, -0.0500000007, -0.0113679469
     16, -0.0500000007, -0.0151797961
     17, -0.0500000007, -0.0190029666
     18, -0.0500000007, -0.0228374936
     19, -0.0500000007, -0.0266834106
     20, -0.0500000007, -0.0305407513
** ... 8616 like lines cut
*Element, type=CPE4T, elset=Visualization
   1, 8614,   13,  596, 8613
   2,   13,   14,  597,  596
   3,   14,   15,  598,  597
   4,   15,   16,  599,  598
   5,   16,   17,  600,  599
   6,   17,   18,  601,  600
   7,   18,   19,  602,  601
   8,   19,   20,  603,  602
   9,   20,   21,  604,  603
  10,   21,   22,  605,  604
  11,   22,   23,  606,  605
  12,   23,   24,  607,  606
  13,   24,    2,   25,  607
  14, 8613,  596,  608, 8612
  15,  596,  597,  609,  608
  16,  597,  598,  610,  609
  17,  598,  599,  611,  610
  18,  599,  600,  612,  611
  19,  600,  601,  613,  612
  20,  601,  602,  614,  613
** ... 8512 like lines cut
*Nset, nset=Set-1, generate
    1,  8636,     1
*Elset, elset=Set-1, generate
    1,  8532,     1
** Section: Section-1
*Solid Section, elset=Visualization, material=Material-1
,
*End Instance
**  
*Nset, nset=Bottom, instance=Part-1-1
  11,  12, 553, 554, 555, 556, 557, 558, 559, 560, 561, 562, 563, 564, 565, 566
 567, 568, 569, 570, 571
*Elset, elset=Bottom, instance=Part-1-1
 6090, 6091, 6113, 6114, 6150, 6153, 6154, 6157, 6159, 6160, 6161, 6167, 6172, 6177, 6179, 6295
 6296, 8384, 8385, 8401
*Nset, nset=Crack, instance=Part-1-1
    1,    4,   10,  174,  175,  176,  177,  178,  179,  180,  181,  182,  183,  184,  185,  523
  524,  525,  526,  527,  528,  529,  530,  531,  532,  533,  534,  535,  536,  537,  538,  539
  540,  541,  542,  543, 8602, 8603, 8604, 8605, 8606, 8607, 8608, 8609, 8610, 8611, 8612, 8613
 8614, 8615, 8616, 8617, 8618, 8619, 8620, 8621, 8622, 8623, 8624, 8625, 8626, 8627, 8628, 8629
 8630, 8631, 8632, 8633, 8634, 8635, 8636
*Elset, elset=Crack, instance=Part-1-1
    1,   14,   27,   40,   53,   66,   79,   92,  105,  118,  131,  144,  157, 1807, 1820, 1833
 1846, 1859, 1872, 1885, 1898, 1911, 1924, 1937, 1950, 1963, 3600, 3602, 3603, 3718, 3723, 3727
 3729, 3730, 3731, 3785, 3786, 3911, 3912, 3913, 3914, 3916, 3917, 3918, 3921, 4057, 4066, 4540
 6107, 6121, 6122, 6123, 6125, 6126, 6272, 6273, 6282, 6283, 6284, 6285, 6286, 6287, 6288, 6289
 6290, 6293, 6430, 6566, 6728, 8035
*Nset, nset=Right, instance=Part-1-1
   12
*Nset, nset=Top, instance=Part-1-1
   8,   9, 495, 496, 497, 498, 499, 500, 501, 502, 503, 504, 505, 506, 507, 508
 509, 510, 511, 512, 513
*Elset, elset=Top, instance=Part-1-1
 3610, 3611, 3626, 3627, 3628, 3678, 3683, 3687, 3688, 3692, 3700, 3705, 3709, 3712, 3890, 3906
 3907, 5928, 5932, 5956
*Nset, nset=All, instance=Part-1-1, generate
    1,  8636,     1
*Elset, elset=All, instance=Part-1-1, generate
    1,  8532,     1
*End Assembly
** 
** MATERIALS
** 
*Material, name=Material-1
*Conductivity
1.,
*Depvar
     1,
1,   H,   H
*User Material, constants=5
210000., 0.3, 0.024, 2.7, 0, 
**E=props(1) ! Young's modulus
**xnu=props(2) ! Poisson's ratio
**xl=props(3) ! Length scale
**Gc=props(4) ! Toughness
**kflagS=int(props(5)) ! Solution flag (0: monolithic, 1: staggered)
** 
** PREDEFINED FIELDS
** 
** Name: Predefined Field-1   Type: Temperature
*Initial Conditions, type=TEMPERATURE
All, 0.
** 
** BOUNDARY CONDITIONS
** Name: BC-1 Type: Displacement/Rotation
*Boundary
Right, 1, 1
Bottom, 2, 2
** STEP: Step-1
** 
*Step, name=Step-1, nlgeom=NO, extrapolation=NO, inc=10000, unsymm=NO
*Coupled Temperature-displacement, creep=none, steady state
0.01, 1., 0.01, 0.01
*Solution Technique, type=SEPARATED
*Controls, reset	
*Controls, parameters=time incrementation
5000, 5000, 5000, 5000, 5000, 5000, , , , , 
*Boundary
Top, 2, 2, 0.01
** 
*Restart, write, frequency=0
** 
** FIELD OUTPUT: F-Output-1
** 
*Output, field, frequency=1
*Node Output
U, NT
*Element Output, directions=YES
SDV
** 
** HISTORY OUTPUT: H-Output-1
** 
*Output, history, frequency=1
*Node Output, nset=Top
RF2, U2
*End Step