*Heading
** Job name: Job-4 Model name: Q8 - Hydrogen
** Generated by: Abaqus/CAE 2017
*Preprint, echo=NO, model=NO, history=NO, contact=NO
**
** PARTS
**
*Part, name=Part-1
*End Part
**  
**
** ASSEMBLY
**
*Assembly, name=Assembly
**  
*Instance, name=Part-1-1, part=Part-1
*Node
      1,         -0.5,           0.
      2,           0.,           0.
      3,          0.5,           0.
      4,          0.5,          0.5
      5,         -0.5,          0.5
      6,         -0.5,         -0.5
      7,          0.5,         -0.5
      8, -0.459276021,           0.
      9, -0.421491057,           0.
     10, -0.386433035,           0.
     11, -0.353905112,           0.
     12, -0.323724747,           0.
     13, -0.295722485,           0.
     14, -0.269741148,           0.
     15, -0.245634854,           0.
     16, -0.223268315,           0.
     17,  -0.20251596,           0.
     18,  -0.18326129,           0.
     19, -0.165396228,           0.
     20,  -0.14882049,           0.
** ... 16400 like lines cut
*************************************************
*User element, nodes=8, type=U1, properties=5, coordinates=2, var=44
1,2
1,3
1,11
*************************************************
*ELEMENT, TYPE=U1, ELSET=SOLID
   1,  2616,  2603,   197,   198,  5507,  5508,  5509,  5510
   2,  2446,   196,   197,  2603,  5511,  5512,  5508,  5513
   3,   195,   196,  2446,  2613,  5514,  5511,  5515,  5516
   4,  2613,  2545,   194,   195,  5517,  5518,  5519,  5516
   5,  2545,  2447,   193,   194,  5520,  5521,  5522,  5518
   6,  2489,  2490,  2542,   357,  5523,  5524,  5525,  5526
   7,  2489,  2445,   190,   191,  5527,  5528,  5529,  5530
   8,   188,   189,  2448,  2501,  5531,  5532,  5533,  5534
   9,  2501,  2548,   187,   188,  5535,  5536,  5537,  5534
  10,     5,   187,  2548,   186,  5538,  5536,  5539,  5540
  11,   173,   174,  2497,  2451,  5541,  5542,  5543,  5544
  12,  2451,  2479,   377,  2498,  5545,  5546,  5547,  5548
  13,  2482,  2518,  2554,   364,  5549,  5550,  5551,  5552
  14,  2375,  2336,   346,  2428,  5553,  5554,  5555,  5556
  15,  2052,  2700,  2113,  2162,  5557,  5558,  5559,  5560
  16,  1871,  1874,  1939,  2711,  5561,  5562,  5563,  5564
  17,  1361,  1557,  1464,  1465,  5565,  5566,  5567,  5568
  18,  1250,  1129,  1131,  1355,  5569,  5570,  5571,  5572
  19,   141,   489,   487,   140,  5573,  5574,  5575,  5576
  20,   631,   495,   497,   633,  5577,  5578,  5579,  5580
** ... 5389 like lines cut
*************************************************
*UEL PROPERTY, ELSET=SOLID
210000., 0.3, 0.05, 2.7, 0.0127
**E,nu,lc,gc,D
*************************************************
*Element, type=CPE8R, elset=Visualization
10001,2616,2603,197,198,5507,5508,5509,5510
10002,2446,196,197,2603,5511,5512,5508,5513
10003,195,196,2446,2613,5514,5511,5515,5516
10004,2613,2545,194,195,5517,5518,5519,5516
10005,2545,2447,193,194,5520,5521,5522,5518
10006,2489,2490,2542,357,5523,5524,5525,5526
10007,2489,2445,190,191,5527,5528,5529,5530
10008,188,189,2448,2501,5531,5532,5533,5534
10009,2501,2548,187,188,5535,5536,5537,5534
10010,5,187,2548,186,5538,5536,5539,5540
10011,173,174,2497,2451,5541,5542,5543,5544
10012,2451,2479,377,2498,5545,5546,5547,5548
10013,2482,2518,2554,364,5549,5550,5551,5552
10014,2375,2336,346,2428,5553,5554,5555,5556
10015,2052,2700,2113,2162,5557,5558,5559,5560
10016,1871,1874,1939,2711,5561,5562,5563,5564
10017,1361,1557,1464,1465,5565,5566,5567,5568
10018,1250,1129,1131,1355,5569,5570,5571,5572
10019,141,489,487,140,5573,5574,5575,5576
10020,631,495,497,633,5577,5578,5579,5580
** ... 5389 like lines cut
*Nset, nset=Set-1, generate
     1,  16420,      1
*Elset, elset=Set-1, generate
    1,  5409,     1
** Section: Section-1
*Solid Section, elset=Visualization, material=Material-1
,
*End Instance
**  
*Nset, nset=BottomSide, instance=Part-1-1
     6,     7,   211,   212,   213,   214,   215,   216,   217,   218,   219,   220,   221,   222,   223,   224
   225,   226,   227,   228,   229,   230,   231,   232,   233,   234, 11153, 11158, 11160, 11224, 11228, 11232
 11234, 11402, 11404, 11426, 11450, 11452, 11487, 11490, 11503, 11505, 11518, 11524, 11594, 11598, 11633, 11671
 11675, 11711, 16400
*Elset, elset=BottomSide, instance=Part-1-1
 2767, 2768, 2769, 2787, 2788, 2789, 2790, 2835, 2836, 2843, 2850, 2851, 2861, 2862, 2866, 2867
 2872, 2874, 2893, 2894, 2904, 2914, 2915, 2925, 5317
*Nset, nset=Crack, instance=Part-1-1
     1,     2,     8,     9,    10,    11,    12,    13,    14,    15,    16,    17,    18,    19,    20,    21
    22,    23,    24,    25,    26,    27,    28,    29,    30,    31,    32,    33,    34,    35,  5478,  5479
  5480,  5481,  5482,  5483,  5484,  5485,  5486,  5487,  5488,  5489,  5490,  5491,  5492,  5493,  5494,  5495
  5496,  5497,  5498,  5499,  5500,  5501,  5502,  5503,  5504,  5505,  5506,  5831,  5835,  5839,  6040,  6081
  6134,  6136,  6166,  6174,  6178,  6475,  6479,  6481,  6483,  6485,  6488,  6490,  6495,  6497,  6502,  6505
  6506,  6509,  6516,  6519,  6522,  6524, 10952, 11092, 11117, 11123, 11188, 11193, 11310, 11380, 11384, 11388
 11390, 12077, 12079, 12081, 12083, 12085, 12087, 12090, 12092, 12095, 12098, 12102, 12104, 12107, 12110, 12113
 12116, 12118, 12535, 16300, 16399
*Nset, nset=Full, instance=Part-1-1, generate
     1,  16420,      1
*Elset, elset=Full, instance=Part-1-1, generate
    1,  5409,     1
*Nset, nset=LeftSide, instance=Part-1-1
     1,     5,     6,   187,   188,   189,   190,   191,   192,   193,   194,   195,   196,   197,   198,   199
   200,   201,   202,   203,   204,   205,   206,   207,   208,   209,   210,  5506,  5509,  5512,  5514,  5519
  5522,  5529,  5531,  5537,  5538,  6008,  6012, 11000, 11091, 11118, 11126, 11127, 11138, 11141, 11145, 11148
 11156, 11798, 11957, 12055, 12122, 16361
*Elset, elset=LeftSide, instance=Part-1-1
    1,    2,    3,    4,    5,    7,    8,    9,   10,  137,  138, 2573, 2655, 2757, 2759, 2760
 2762, 2763, 2764, 2765, 2767, 2948, 2995, 3032, 3062, 5264
*Nset, nset=RightSide, instance=Part-1-1
     3,     4,     7,   135,   136,   137,   138,   139,   140,   141,   142,   143,   144,   145,   146,   147
   148,   149,   150,   151,   152,   153,   154,   155,   156,   157,   158,   159,   160,   161,   162,   235
   236,   237,   238,   239,   240,   241,   242,   243,   244,   245,   246,   247,   248,   249,   250,   251
   252,   253,   254,   255,   256,   257,   258,   259,   260,   261,   262,  5576,  5584,  5845,  5875,  5902
  5916,  5933,  5935,  5948,  6748,  6749,  6752,  6754,  6755,  6758,  6759,  6762,  6763,  6766,  6770,  6773
  6775,  6778,  6783,  7000,  7027,  7273,  7274, 10944, 11712, 11716, 11720, 11722, 11726, 11730, 11734, 11744
 11865, 11911, 12074, 12124, 12138, 12141, 12143, 12146, 12148, 12151, 12155, 12156, 12159, 12160, 12162, 12163
 12504, 12510, 12768, 13344, 16295
*Elset, elset=RightSide, instance=Part-1-1
   19,   21,   89,   97,  104,  108,  113,  114,  118,  373,  374,  375,  376,  377,  378,  379
  380,  381,  382,  383,  384,  385,  386,  388,  483,  495,  618,  619, 2517, 2925, 2926, 2927
 2928, 2929, 2930, 2931, 2934, 2966, 2980, 3043, 3063, 3067, 3068, 3069, 3070, 3071, 3072, 3073
 3074, 3075, 3076, 3077, 3078, 3241, 3245, 3374, 3665, 5206
*Nset, nset=Set-6, instance=Part-1-1
     1,     2,     8,     9,    10,    11,    12,    13,    14,    15,    16,    17,    18,    19,    20,    21
    22,    23,    24,    25,    26,    27,    28,    29,    30,    31,    32,    33,    34,    35,  5478,  5479
  5480,  5481,  5482,  5483,  5484,  5485,  5486,  5487,  5488,  5489,  5490,  5491,  5492,  5493,  5494,  5495
  5496,  5497,  5498,  5499,  5500,  5501,  5502,  5503,  5504,  5505,  5506,  5831,  5835,  5839,  6040,  6081
  6134,  6136,  6166,  6174,  6178,  6475,  6479,  6481,  6483,  6485,  6488,  6490,  6495,  6497,  6502,  6505
  6506,  6509,  6516,  6519,  6522,  6524, 10952, 11092, 11117, 11123, 11188, 11193, 11310, 11380, 11384, 11388
 11390, 12077, 12079, 12081, 12083, 12085, 12087, 12090, 12092, 12095, 12098, 12102, 12104, 12107, 12110, 12113
 12116, 12118, 12535, 16300, 16399
*Elset, elset=Set-6, instance=Part-1-1
   86,   87,   88,  146,  157,  173,  174,  183,  186,  187,  282,  283,  284,  285,  286,  287
  288,  290,  291,  293,  294,  295,  296,  298,  299,  300,  301, 2529, 2655, 2757, 2758, 2777
 2778, 2810, 2829, 2830, 2831, 2832, 3044, 3045, 3046, 3047, 3048, 3049, 3050, 3051, 3052, 3053
 3054, 3055, 3056, 3057, 3058, 3059, 3060, 3257, 5209, 5316
*Nset, nset=TopSide, instance=Part-1-1
     4,     5,   163,   164,   165,   166,   167,   168,   169,   170,   171,   172,   173,   174,   175,   176
   177,   178,   179,   180,   181,   182,   183,   184,   185,   186,  5540,  5541,  5605,  5609,  5803,  5893
  5896,  5924,  5928,  5938,  5945,  5946,  5954,  5960,  5964,  5970,  5974,  6006,  6463,  6469,  6472,  6791
 11002, 11003, 11005
*Elset, elset=TopSide, instance=Part-1-1
   10,   11,   27,   28,   78,  102,  103,  111,  112,  115,  117,  118,  121,  122,  123,  125
  126,  136,  275,  278,  280,  391, 2575, 2576, 2578
*End Assembly
*Amplitude, name=Amp-1
             0.,              1.,       10000000.,              1.
** 
** MATERIALS
** 
*Material, name=Material-1
*Density
1.,
*Depvar
     11,
1, S11, S11
2, S22, S22
3, S33, S33
4, S12, S12
5, E11, E11
6, E22, E22
7, E33, E33
8, E12, E12
9, PHI, PHI	
10, SH, SH
11, CL, CL 
*Specific Heat
1.,
*User Material, constants=0
** 
** BOUNDARY CONDITIONS
** 
** Name: BC-1 Type: Displacement/Rotation
*Boundary
BottomSide, 1, 1
BottomSide, 2, 2
** 
** PREDEFINED FIELDS
** 
** Name: Predefined Field-1   Type: Temperature
*Initial Conditions, type=TEMPERATURE
Full, 0.5
** ----------------------------------------------------------------
** 
** STEP: Step-1
** 
*Step, name=Step-1, nlgeom=NO, amplitude=RAMP, inc=1000000
*Coupled Temperature-displacement, creep=none
10000., 1e+07, 
** 
** BOUNDARY CONDITIONS
** 
** Name: BC-2 Type: Displacement/Rotation
*Boundary
TopSide, 2, 2, 0.01
** Name: BC-3 Type: Temperature
*Boundary, amplitude=Amp-1
BottomSide, 11, 11, 0.5
** Name: BC-4 Type: Temperature
*Boundary, amplitude=Amp-1
LeftSide, 11, 11, 0.5
** Name: BC-5 Type: Temperature
*Boundary, amplitude=Amp-1
RightSide, 11, 11, 0.5
** 
** OUTPUT REQUESTS
** 
*Restart, write, frequency=0
** 
** FIELD OUTPUT: F-Output-1
** 
*Output, field, frequency=30
*Node Output
CF, NT, RF, RFL, U
*Element Output, directions=YES
E, HFL, SDV
** 
** HISTORY OUTPUT: H-Output-1
** 
*Output, history, frequency=10
*Node Output, nset=BottomSide
RF2, 
** 
** HISTORY OUTPUT: H-Output-2
** 
*Node Output, nset=TopSide
U2, 
*End Step
