*Heading
** Job name: Job-1 Model name: Model-1
** Generated by: Abaqus/CAE 6.14-1
*Preprint, echo=NO, model=NO, history=NO, contact=NO
**
** PARTS
**
*Part, name=Part-3-Copy
*Node
      1,  0.150000006, 0.0845320001
      2,  0.150000006,  0.129999995
      3,  0.140000001,  0.150000006
      4,        0.125,  0.150000006
      5,        0.125, 0.0845320001
      6,  0.174999997,  0.150000006
      7,  0.174999997, 0.0845320001
      8,           0.,  0.150000006
      9,           0.,           0.
     10,  0.300000012,           0.
     11,  0.300000012,  0.150000006
     12,  0.159999996,  0.150000006
     13,  0.150000006, 0.0855424032
     14,  0.150000006, 0.0865527987
     15,  0.150000006, 0.0875632018
     16,  0.150000006, 0.0885735974
     17,  0.150000006, 0.0895840004
     18,  0.150000006, 0.0905944034
     19,  0.150000006,  0.091604799
     20,  0.150000006, 0.0926152021
** ... 20998 like lines cut
*************************************************
*User element, nodes=8, type=U1, properties=12, coordinates=2, var=100
1,2
1,3
1,11
*************************************************
*ELEMENT, TYPE=U1, ELSET=SOLID
   1,    13,    14,   809,  1771,  7033,  7034,  7035,  7036
   2,   181,  1771,   668,   180,  7037,  7038,  7039,  7040
   3,   854,   904,   960,   376,  7041,  7042,  7043,  7044
   4,  1848,  1230,  1811,  1156,  7045,  7046,  7047,  7048
   5,   411,  1402,  1303,  1355,  7049,  7050,  7051,  7052
   6,  1479,  1580,  1532,   422,  7053,  7054,  7055,  7056
   7,  2069,  1696,  1730,   424,  7057,  7058,  7059,  7060
   8,  1610,   436,  1663,  1692,  7061,  7062,  7063,  7064
   9,  1455,   448,  1485,  1538,  7065,  7066,  7067,  7068
  10,  1450,  1505,   460,  1351,  7069,  7070,  7071,  7072
  11,   472,  1855,  1103,  1906,  7073,  7074,  7075,  7076
  12,   915,   836,   484,   969,  7077,  7078,  7079,  7080
  13,   135,   136,   744,   715,  7081,  7082,  7083,  7084
  14,   715,   744,   836,   495,  7083,  7085,  7086,  7087
  15,   136,   137,   716,   744,  7088,  7089,  7090,  7082
  16,   716,   743,   835,   484,  7091,  7092,  7093,  7094
  17,   473,   834,   900,   957,  7095,  7096,  7097,  7098
  18,  1899,  1898,  1115,  1877,  7099,  7100,  7101,  7102
  19,  1268,  1934,  1350,  1299,  7103,  7104,  7105,  7106
  20,  1477,  2018,  1528,  2051,  7107,  7108,  7109,  7110
** ... 6935 like lines cut
*************************************************
*UEL PROPERTY, ELSET=SOLID
190000, 0.3, 520, 0.067, 8.5e-4, 1.e-3, 5.1e-5, 35.3,
53.5, 0.0005, 3.e-3, 10.
**E, nu, Sy, N, D, L_0, alphi, w, 
**A, xk, e_f, t0
*************************************************
*Element, type=CPE8R, elset=Visualization
10001,13,14,809,1771,7033,7034,7035,7036
10002,181,1771,668,180,7037,7038,7039,7040
10003,854,904,960,376,7041,7042,7043,7044
10004,1848,1230,1811,1156,7045,7046,7047,7048
10005,411,1402,1303,1355,7049,7050,7051,7052
10006,1479,1580,1532,422,7053,7054,7055,7056
10007,2069,1696,1730,424,7057,7058,7059,7060
10008,1610,436,1663,1692,7061,7062,7063,7064
10009,1455,448,1485,1538,7065,7066,7067,7068
10010,1450,1505,460,1351,7069,7070,7071,7072
10011,472,1855,1103,1906,7073,7074,7075,7076
10012,915,836,484,969,7077,7078,7079,7080
10013,135,136,744,715,7081,7082,7083,7084
10014,715,744,836,495,7083,7085,7086,7087
10015,136,137,716,744,7088,7089,7090,7082
10016,716,743,835,484,7091,7092,7093,7094
10017,473,834,900,957,7095,7096,7097,7098
10018,1899,1898,1115,1877,7099,7100,7101,7102
10019,1268,1934,1350,1299,7103,7104,7105,7106
10020,1477,2018,1528,2051,7107,7108,7109,7110
** ... 6935 like lines cut

*Nset, nset=Set-1, generate
     1,  21018,      1
*Elset, elset=Set-1, generate
    1,  6955,     1
** Section: Section-1
*Solid Section, elset=Visualization, material=Material-1
,
*End Part
**  
**
** ASSEMBLY
**
*Assembly, name=Assembly
**  
*Instance, name=Part-3-Copy-1, part=Part-3-Copy
*End Instance
**  
*Nset, nset=all, instance=Part-3-Copy-1, generate
     1,  21018,      1
*Elset, elset=all, instance=Part-3-Copy-1, generate
    1,  6955,     1
*Nset, nset=interface, instance=Part-3-Copy-1
     2,     3,    12,    57,    58,    59,    60,    61,    62,    63,    64,    65,    66,    67,    68,    69
    70,    71,    72,    73,    74,    75,    76,    77,    78,    79,   353,   354,   355,   356,   357,   358
   359,   360,   361,   362,   363,   364,   365,   366,   367,   368,   369,   370,   371,   372,   373,   374
   375,  8113,  8118,  8121,  8123,  8126,  8143,  8153,  8165,  8167,  8192,  9104,  9126,  9168,  9186,  9190
  9192,  9195,  9196,  9197,  9366,  9374,  9384,  9388,  9389, 17558, 17646, 18462, 18465, 18505, 18509, 18540
 18545, 18548, 18550, 18554, 18668, 18807, 18810, 18943, 18946, 18947, 18948, 19668, 19686, 19690, 19721, 19775
 19783,
*Elset, elset=interface, instance=Part-3-Copy-1
  284,  286,  287,  288,  289,  295,  297,  300,  301,  308,  602,  610,  623,  638,  640,  641
  642,  643,  644,  761,  765,  770,  774,  775, 5201, 5224, 5453, 5454, 5465, 5466, 5475, 5476
 5477, 5478, 5479, 5510, 5549, 5550, 5591, 5592, 5593, 5594, 5865, 5874, 5876, 5899, 5958, 5964
*Nset, nset=left, instance=Part-3-Copy-1
     8,     9,   286,   287,   288,   289,   290,   291,   292,   293,   294, 10907, 10910, 10915, 11003, 11008
 11011, 11026, 11028, 11036, 11045
*Elset, elset=left, instance=Part-3-Copy-1
 1852, 1853, 1854, 1878, 1880, 1881, 1886, 1887, 1890, 1893
*Nset, nset=right, instance=Part-3-Copy-1
    10,    11,   314,   315,   316,   317,   318,   319,   320,   321,   322, 10736, 10741, 10780, 10805, 10809
 11081, 11096, 11111, 11115, 11645
*Elset, elset=right, instance=Part-3-Copy-1
 1805, 1806, 1816, 1823, 1824, 1904, 1908, 1912, 1913, 2101
*End Assembly
** 
*Amplitude, name=Amp-1
             0.,              1.,       10000000.,              1.
** 
*Amplitude, name=Amp-2
             0.,              1.,           0.005,              0.,      100000000.,              0.
*Material, name=Material-1
*Density
1.,
*Depvar
     25,
1, S11, S11
2, S22, S22
3, S33, S33
4, S12, S12
5, E11, E11
6, E22, E22
7, E33, E33
8, E12, E12
9, EE11, EE11
10, EE22, EE22
11, EE33, EE33
12, EE12, EE12
13, EP11, EP11
14, EP22, EP22
15, EP33, EP33
16, EP12, EP12
17, PEEQ, PEEQ
18, PHI, PHI
19, LS, LS
20,  Sh,  Sh
21,  DEQ,  DEQ
22,  cL,  cL
23,  Ti,  Ti
24,  pi,  pi
25, PitD, PitD
*Specific Heat
1.,
*User Material, constants=0
** ----------------------------------------------------------------
** STEP: Step-1
** 
*Step, name=Step-1, nlgeom=NO,inc=1.
*Coupled Temperature-displacement, creep=none
1., 1., 
** 
** BOUNDARY CONDITIONS
** Name: BC-3 Type: Temperature
*Boundary, amplitude=Amp-1
all, 11, 11, 1.
** Name: BC-4 Type: Temperature
*Boundary, amplitude=Amp-1
all, 3, 3, 1.
**  
** CONTROLS
** 
*Controls, reset
*Controls, analysis=discontinuous
**
** OUTPUT REQUESTS
** 
*Restart, write, frequency=0
** 
** FIELD OUTPUT: F-Output-1
** 
*Output, field, frequency=1
*Node Output
CF, RF, U
*Element Output, directions=YES
SDV, 
** 
** HISTORY OUTPUT: H-Output-2
** 
*Output, history, frequency=1
*Node Output, nset=left
RF1, 
** 
** HISTORY OUTPUT: H-Output-1
** 
*Node Output, nset=right
U1,
*End Step
**
** STEP: Step-2
** 
*Step, name=Step-2, nlgeom=NO,inc=1.
*Coupled Temperature-displacement, creep=none
1., 1., 
** 
** BOUNDARY CONDITIONS
** Name: BC-3 Type: Temperature
*Boundary,op=NEW
**
** Name: BC-4 Type: Temperature
*Boundary,op=NEW
** 
** CONTROLS
** 
*Controls, reset
*Controls, analysis=discontinuous
** 
** OUTPUT REQUESTS
** 
*Restart, write, frequency=0
** 
** FIELD OUTPUT: F-Output-1
** 
*Output, field, frequency=1
*Node Output
CF, RF, U
*Element Output, directions=YES
SDV, 
** 
** HISTORY OUTPUT: H-Output-2
** 
*Output, history, frequency=1
*Node Output, nset=left
RF1, 
** 
** HISTORY OUTPUT: H-Output-1
** 
*Node Output, nset=right
U1,
*End Step
**
** STEP: Step-3
** 
*Step, name=Step-3, nlgeom=NO, inc=100000000
*Coupled Temperature-displacement, creep=none, deltmx=1.
1e-3., 1., 1e-10, 1.
**
** BOUNDARY CONDITIONS
** Name: BC-5 Type: Displacement/Rotation
*Boundary, amplitude=Amp-1
right, 1, 1, 0.0002
** 
** Name: BC-6 Type: Displacement/Rotation
*Boundary, amplitude=Amp-1
left, 1, 1, -0.0002
**
** CONTROLS
** 
*Controls, reset
*Controls, analysis=discontinuous
**
** OUTPUT REQUESTS
** 
*Restart, write, frequency=0
** 
** FIELD OUTPUT: F-Output-1
** 
*Output, field, frequency=1
*Node Output
CF, RF, U
*Element Output, directions=YES
SDV, 
** 
** HISTORY OUTPUT: H-Output-2
** 
*Output, history, frequency=1
*Node Output, nset=left
RF1, 
** 
** HISTORY OUTPUT: H-Output-1
** 
*Node Output, nset=right
U1,
*End Step
**
** STEP: Step-4
** 
*Step, name=Step-4, nlgeom=NO, inc=100000000
*Coupled Temperature-displacement, creep=none, deltmx=1.
1e-3., 900., 1e-10, 0.25
**
** BOUNDARY CONDITIONS
**
** Name: BC-7 Type: Temperature
*Boundary, amplitude=Amp-2
interface, 11, 11, 1.
** 
** Name: BC-8 Type: Temperature
*Boundary, amplitude=Amp-2
interface, 3, 3, 1. 
** 
** CONTROLS
** 
*Controls, reset
*Controls, parameters=field, field=global
0.1, 0.1, , , 0.5, , , 
**
** OUTPUT REQUESTS
** 
*Restart, write, frequency=0
** 
** FIELD OUTPUT: F-Output-1
** 
*Output, field, frequency=5
*Node Output
CF, RF, U
*Element Output, directions=YES
SDV, 
** 
** HISTORY OUTPUT: H-Output-1
** 
*Output, history, frequency=2
*Node Output, nset=left
RF1, 
** 
** HISTORY OUTPUT: H-Output-1
** 
*Node Output, nset=right
U1,
*End Step
